[Format]      =  4.0
[Frequency]   =  50
[Precision]   =  1e-008
[MinAngle]    =  30
[DoSmartMesh] =  1
[Depth]       =  34.545108848143315
[LengthUnits] =  centimeters
[ProblemType] =  planar
[Coordinates] =  cartesian
[ACSolver]    =  0
[PrevType]    =  0
[PrevSoln]    =  ""
[Comment]     =  "Add comments here."
[PointProps]   = 0
[BdryProps]   = 1
  <BeginBdry>
    <BdryName> = "A1"
    <BdryType> = 0
    <A_0> = 0
    <A_1> = 0
    <A_2> = 0
    <Phi> = 0
    <c0> = 0
    <c0i> = 0
    <c1> = 0
    <c1i> = 0
    <Mu_ssd> = 0
    <Sigma_ssd> = 0
    <innerangle> = 0
    <outerangle> = 0
  <EndBdry>
[BlockProps]  = 6
  <BeginBlock>
    <BlockName> = "M-19 Steel"
    <Mu_x> = 5000
    <Mu_y> = 5000
    <H_c> = 0
    <H_cAngle> = 0
    <J_re> = 0
    <J_im> = 0
    <Sigma> = 0
    <d_lam> = 0
    <Phi_h> = 0
    <Phi_hx> = 0
    <Phi_hy> = 0
    <LamType> = 0
    <LamFill> = 1
    <NStrands> = 0
    <WireD> = 0
    <BHPoints> = 0
  <EndBlock>
  <BeginBlock>
    <BlockName> = "Copper"
    <Mu_x> = 58
    <Mu_y> = 58
    <H_c> = 0
    <H_cAngle> = 0
    <J_re> = 0
    <J_im> = 0
    <Sigma> = 0
    <d_lam> = 0
    <Phi_h> = 0
    <Phi_hx> = 0
    <Phi_hy> = 0
    <LamType> = 0
    <LamFill> = 1
    <NStrands> = 0
    <WireD> = 0
    <BHPoints> = 0
  <EndBlock>
  <BeginBlock>
    <BlockName> = "Aluminum"
    <Mu_x> = 37
    <Mu_y> = 37
    <H_c> = 0
    <H_cAngle> = 0
    <J_re> = 0
    <J_im> = 0
    <Sigma> = 0
    <d_lam> = 0
    <Phi_h> = 0
    <Phi_hx> = 0
    <Phi_hy> = 0
    <LamType> = 0
    <LamFill> = 1
    <NStrands> = 0
    <WireD> = 0
    <BHPoints> = 0
  <EndBlock>
  <BeginBlock>
    <BlockName> = "Air"
    <Mu_x> = 1
    <Mu_y> = 1
    <H_c> = 1
    <H_cAngle> = 0
    <J_re> = 0
    <J_im> = 0
    <Sigma> = 0
    <d_lam> = 0
    <Phi_h> = 0
    <Phi_hx> = 0
    <Phi_hy> = 0
    <LamType> = 0
    <LamFill> = 1
    <NStrands> = 0
    <WireD> = 0
    <BHPoints> = 0
  <EndBlock>
  <BeginBlock>
    <BlockName> = "M-19 Steel"
    <Mu_x> = 5000
    <Mu_y> = 5000
    <H_c> = 0
    <H_cAngle> = 0
    <J_re> = 0
    <J_im> = 0
    <Sigma> = 0
    <d_lam> = 0
    <Phi_h> = 0
    <Phi_hx> = 0
    <Phi_hy> = 0
    <LamType> = 0
    <LamFill> = 1
    <NStrands> = 0
    <WireD> = 0
    <BHPoints> = 0
  <EndBlock>
  <BeginBlock>
    <BlockName> = "Air"
    <Mu_x> = 1
    <Mu_y> = 1
    <H_c> = 0
    <H_cAngle> = 0
    <J_re> = 0
    <J_im> = 0
    <Sigma> = 0
    <d_lam> = 0
    <Phi_h> = 0
    <Phi_hx> = 0
    <Phi_hy> = 0
    <LamType> = 0
    <LamFill> = 1
    <NStrands> = 0
    <WireD> = 0
    <BHPoints> = 0
  <EndBlock>
[CircuitProps]  = 7
  <BeginCircuit>
    <CircuitName> = "A"
    <TotalAmps_re> = 76.469233342287524
    <TotalAmps_im> = 0
    <CircuitType> = 1
  <EndCircuit>
  <BeginCircuit>
    <CircuitName> = "C"
    <TotalAmps_re> = 76.469233342287524
    <TotalAmps_im> = 0
    <CircuitType> = 1
  <EndCircuit>
  <BeginCircuit>
    <CircuitName> = "B"
    <TotalAmps_re> = 76.469233342287524
    <TotalAmps_im> = 0
    <CircuitType> = 1
  <EndCircuit>
  <BeginCircuit>
    <CircuitName> = "A1"
    <TotalAmps_re> = -76.469233342287524
    <TotalAmps_im> = -0
    <CircuitType> = 1
  <EndCircuit>
  <BeginCircuit>
    <CircuitName> = "C1"
    <TotalAmps_re> = -76.469233342287524
    <TotalAmps_im> = -0
    <CircuitType> = 1
  <EndCircuit>
  <BeginCircuit>
    <CircuitName> = "B1"
    <TotalAmps_re> = -76.469233342287524
    <TotalAmps_im> = -0
    <CircuitType> = 1
  <EndCircuit>
  <BeginCircuit>
    <CircuitName> = "Rotor"
    <TotalAmps_re> = 0
    <TotalAmps_im> = 0
    <CircuitType> = 1
  <EndCircuit>
[NumPoints] = 754
-0.77111535205214232	8.0385752309522829	0	0
-0.49440944968190048	8.2321980513843247	0	0
-0.94274222518054329	8.1929703135073222	0	0
-0.50295154977902246	9.6206282705119026	0	0
-1.1754507130269864	9.5617866636964006	0	0
-0.85096945276610514	9.7257072997537435	0	0
-0.61559474562931771	9.7463018621391697	0	0
-1.0863441599028927	9.7051127373683173	0	0
-0.63661551940254957	8.0503435523153826	0	0
-0.76239977777737655	7.9389651637870005	0	0
-0.6278999451277838	7.9507334851501001	0	0
-2.1554203618021415	7.7830479000059229	0	0
-1.9165251161588914	8.0217938687341839	0	0
-2.3512627817592655	7.9053025700755368	0	0
-2.1660514431341396	9.387735015119997	0	0
-2.8181579415347011	9.2129980671320268	0	0
-2.5270520819320144	9.4307878408061239	0	0
-2.298814807491818	9.4919457726019143	0	0
-2.7552893563722107	9.3696299090103334	0	0
-2.0249990621220295	7.817995289603517	0	0
-2.1295384572934806	7.6864583789262566	0	0
-1.9991171576133684	7.7214057685238506	0	0
-3.4742311527779659	7.2906957636545116	0	0
-3.2804176216898293	7.5673035815454019	0	0
-3.6883318981228994	7.3770882519631114	0	0
-3.7633511910471054	8.8691938139726645	0	0
-4.3752226056967096	8.5838708195992304	0	0
-4.1263514972465947	8.8489065997158676	0	0
-3.9121965021192331	8.9487696477465697	0	0
-4.3405064923739562	8.7490435516851655	0	0
-3.3518568698480449	7.3477603625291987	0	0
-3.4319693267615996	7.2000658327332587	0	0
-3.3095950438316786	7.2571304316079459	0	0
-4.6874778831752408	6.5766918570130128	0	0
-4.5446396127062245	6.8827542586285766	0	0
-4.9133291157662855	6.6245945079085153	0	0
-5.2463084704053955	8.081014418218281	0	0
-5.799342724995487	7.69377479213819	0	0
-5.6002735229164591	7.9980014560962527	0	0
-5.4067115338099265	8.133535325224285	0	0
-5.7938355120229916	7.8624675869682212	0	0
-4.5768710322572232	6.6541397822290316	0	0
-4.6301202427930566	6.4947768417163934	0	0
-4.519513391875039	6.5722247669324121	0	0
-5.7582956162988062	5.6628176143961486	0	0
-5.6707741145547041	5.9890341208968936	0	0
-5.9890341208968936	5.6707741145547041	0	0
-6.5698586324713899	7.047248641984674	0	0
-7.047248641984674	6.5698586324713899	0	0
-6.9040316391306886	6.9040316391306886	0	0
-6.7369451358010393	7.071118142460338	0	0
-7.071118142460338	6.7369451358010393	0	0
-5.6628176143961486	5.7582956162988062	0	0
-5.6875849693412883	5.5921069674386308	0	0
-5.5921069674386308	5.6875849693412883	0	0
-6.6541397822290316	4.5768710322572232	0	0
-6.6245945079085153	4.9133291157662855	0	0
-6.8827542586285766	4.5446396127062245	0	0
-7.69377479213819	5.799342724995487	0	0
-8.081014418218281	5.2463084704053955	0	0
-7.9980014560962527	5.6002735229164591	0	0
-7.8624675869682212	5.7938355120229916	0	0
-8.133535325224285	5.4067115338099265	0	0
-6.5766918570130128	4.6874778831752408	0	0
-6.5722247669324121	4.519513391875039	0	0
-6.4947768417163934	4.6301202427930566	0	0
-7.3477603625291987	3.3518568698480449	0	0
-7.3770882519631114	3.6883318981228994	0	0
-7.5673035815454019	3.2804176216898293	0	0
-8.5838708195992304	4.3752226056967096	0	0
-8.8691938139726645	3.7633511910471054	0	0
-8.8489065997158676	4.1263514972465947	0	0
-8.7490435516851655	4.3405064923739562	0	0
-8.9487696477465697	3.9121965021192331	0	0
-7.2906957636545116	3.4742311527779659	0	0
-7.2571304316079459	3.3095950438316786	0	0
-7.2000658327332587	3.4319693267615996	0	0
-7.817995289603517	2.0249990621220295	0	0
-7.9053025700755368	2.3512627817592655	0	0
-8.0217938687341839	1.9165251161588914	0	0
-9.2129980671320268	2.8181579415347011	0	0
-9.387735015119997	2.1660514431341396	0	0
-9.4307878408061239	2.5270520819320144	0	0
-9.3696299090103334	2.7552893563722107	0	0
-9.4919457726019143	2.298814807491818	0	0
-7.7830479000059229	2.1554203618021415	0	0
-7.7214057685238506	1.9991171576133684	0	0
-7.6864583789262566	2.1295384572934806	0	0
-8.0503435523153826	0.63661551940254957	0	0
-8.1929703135073222	0.94274222518054329	0	0
-8.2321980513843247	0.49440944968190048	0	0
-9.5617866636964006	1.1754507130269864	0	0
-9.6206282705119026	0.50295154977902246	0	0
-9.7257072997537435	0.85096945276610514	0	0
-9.7051127373683173	1.0863441599028927	0	0
-9.7463018621391697	0.61559474562931771	0	0
-8.0385752309522829	0.77111535205214232	0	0
-7.9507334851501001	0.6278999451277838	0	0
-7.9389651637870005	0.76239977777737655	0	0
-8.0385752309522829	-0.77111535205214232	0	0
-8.2321980513843247	-0.49440944968190048	0	0
-8.1929703135073222	-0.94274222518054329	0	0
-9.6206282705119026	-0.50295154977902246	0	0
-9.5617866636964006	-1.1754507130269864	0	0
-9.7257072997537435	-0.85096945276610514	0	0
-9.7463018621391697	-0.61559474562931771	0	0
-9.7051127373683173	-1.0863441599028927	0	0
-8.0503435523153826	-0.63661551940254957	0	0
-7.9389651637870005	-0.76239977777737655	0	0
-7.9507334851501001	-0.6278999451277838	0	0
-7.7830479000059229	-2.1554203618021415	0	0
-8.0217938687341839	-1.9165251161588914	0	0
-7.9053025700755368	-2.3512627817592655	0	0
-9.387735015119997	-2.1660514431341396	0	0
-9.2129980671320268	-2.8181579415347011	0	0
-9.4307878408061239	-2.5270520819320144	0	0
-9.4919457726019143	-2.298814807491818	0	0
-9.3696299090103334	-2.7552893563722107	0	0
-7.817995289603517	-2.0249990621220295	0	0
-7.6864583789262566	-2.1295384572934806	0	0
-7.7214057685238506	-1.9991171576133684	0	0
-7.2906957636545116	-3.4742311527779659	0	0
-7.5673035815454019	-3.2804176216898293	0	0
-7.3770882519631114	-3.6883318981228994	0	0
-8.8691938139726645	-3.7633511910471054	0	0
-8.5838708195992304	-4.3752226056967096	0	0
-8.8489065997158676	-4.1263514972465947	0	0
-8.9487696477465697	-3.9121965021192331	0	0
-8.7490435516851655	-4.3405064923739562	0	0
-7.3477603625291987	-3.3518568698480449	0	0
-7.2000658327332587	-3.4319693267615996	0	0
-7.2571304316079459	-3.3095950438316786	0	0
-6.5766918570130128	-4.6874778831752408	0	0
-6.8827542586285766	-4.5446396127062245	0	0
-6.6245945079085153	-4.9133291157662855	0	0
-8.081014418218281	-5.2463084704053955	0	0
-7.69377479213819	-5.799342724995487	0	0
-7.9980014560962527	-5.6002735229164591	0	0
-8.133535325224285	-5.4067115338099265	0	0
-7.8624675869682212	-5.7938355120229916	0	0
-6.6541397822290316	-4.5768710322572232	0	0
-6.4947768417163934	-4.6301202427930566	0	0
-6.5722247669324121	-4.519513391875039	0	0
-5.6628176143961486	-5.7582956162988062	0	0
-5.9890341208968936	-5.6707741145547041	0	0
-5.6707741145547041	-5.9890341208968936	0	0
-7.047248641984674	-6.5698586324713899	0	0
-6.5698586324713899	-7.047248641984674	0	0
-6.9040316391306886	-6.9040316391306886	0	0
-7.071118142460338	-6.7369451358010393	0	0
-6.7369451358010393	-7.071118142460338	0	0
-5.7582956162988062	-5.6628176143961486	0	0
-5.5921069674386308	-5.6875849693412883	0	0
-5.6875849693412883	-5.5921069674386308	0	0
-4.5768710322572232	-6.6541397822290316	0	0
-4.9133291157662855	-6.6245945079085153	0	0
-4.5446396127062245	-6.8827542586285766	0	0
-5.799342724995487	-7.69377479213819	0	0
-5.2463084704053955	-8.081014418218281	0	0
-5.6002735229164591	-7.9980014560962527	0	0
-5.7938355120229916	-7.8624675869682212	0	0
-5.4067115338099265	-8.133535325224285	0	0
-4.6874778831752408	-6.5766918570130128	0	0
-4.519513391875039	-6.5722247669324121	0	0
-4.6301202427930566	-6.4947768417163934	0	0
-3.3518568698480449	-7.3477603625291987	0	0
-3.6883318981228994	-7.3770882519631114	0	0
-3.2804176216898293	-7.5673035815454019	0	0
-4.3752226056967096	-8.5838708195992304	0	0
-3.7633511910471054	-8.8691938139726645	0	0
-4.1263514972465947	-8.8489065997158676	0	0
-4.3405064923739562	-8.7490435516851655	0	0
-3.9121965021192331	-8.9487696477465697	0	0
-3.4742311527779659	-7.2906957636545116	0	0
-3.3095950438316786	-7.2571304316079459	0	0
-3.4319693267615996	-7.2000658327332587	0	0
-2.0249990621220295	-7.817995289603517	0	0
-2.3512627817592655	-7.9053025700755368	0	0
-1.9165251161588914	-8.0217938687341839	0	0
-2.8181579415347011	-9.2129980671320268	0	0
-2.1660514431341396	-9.387735015119997	0	0
-2.5270520819320144	-9.4307878408061239	0	0
-2.7552893563722107	-9.3696299090103334	0	0
-2.298814807491818	-9.4919457726019143	0	0
-2.1554203618021415	-7.7830479000059229	0	0
-1.9991171576133684	-7.7214057685238506	0	0
-2.1295384572934806	-7.6864583789262566	0	0
-0.63661551940254957	-8.0503435523153826	0	0
-0.94274222518054329	-8.1929703135073222	0	0
-0.49440944968190048	-8.2321980513843247	0	0
-1.1754507130269864	-9.5617866636964006	0	0
-0.50295154977902246	-9.6206282705119026	0	0
-0.85096945276610514	-9.7257072997537435	0	0
-1.0863441599028927	-9.7051127373683173	0	0
-0.61559474562931771	-9.7463018621391697	0	0
-0.77111535205214232	-8.0385752309522829	0	0
-0.6278999451277838	-7.9507334851501001	0	0
-0.76239977777737655	-7.9389651637870005	0	0
0.77111535205214232	-8.0385752309522829	0	0
0.49440944968190048	-8.2321980513843247	0	0
0.94274222518054329	-8.1929703135073222	0	0
0.50295154977902246	-9.6206282705119026	0	0
1.1754507130269864	-9.5617866636964006	0	0
0.85096945276610514	-9.7257072997537435	0	0
0.61559474562931771	-9.7463018621391697	0	0
1.0863441599028927	-9.7051127373683173	0	0
0.63661551940254957	-8.0503435523153826	0	0
0.76239977777737655	-7.9389651637870005	0	0
0.6278999451277838	-7.9507334851501001	0	0
2.1554203618021415	-7.7830479000059229	0	0
1.9165251161588914	-8.0217938687341839	0	0
2.3512627817592655	-7.9053025700755368	0	0
2.1660514431341396	-9.387735015119997	0	0
2.8181579415347011	-9.2129980671320268	0	0
2.5270520819320144	-9.4307878408061239	0	0
2.298814807491818	-9.4919457726019143	0	0
2.7552893563722107	-9.3696299090103334	0	0
2.0249990621220295	-7.817995289603517	0	0
2.1295384572934806	-7.6864583789262566	0	0
1.9991171576133684	-7.7214057685238506	0	0
3.4742311527779659	-7.2906957636545116	0	0
3.2804176216898293	-7.5673035815454019	0	0
3.6883318981228994	-7.3770882519631114	0	0
3.7633511910471054	-8.8691938139726645	0	0
4.3752226056967096	-8.5838708195992304	0	0
4.1263514972465947	-8.8489065997158676	0	0
3.9121965021192331	-8.9487696477465697	0	0
4.3405064923739562	-8.7490435516851655	0	0
3.3518568698480449	-7.3477603625291987	0	0
3.4319693267615996	-7.2000658327332587	0	0
3.3095950438316786	-7.2571304316079459	0	0
4.6874778831752408	-6.5766918570130128	0	0
4.5446396127062245	-6.8827542586285766	0	0
4.9133291157662855	-6.6245945079085153	0	0
5.2463084704053955	-8.081014418218281	0	0
5.799342724995487	-7.69377479213819	0	0
5.6002735229164591	-7.9980014560962527	0	0
5.4067115338099265	-8.133535325224285	0	0
5.7938355120229916	-7.8624675869682212	0	0
4.5768710322572232	-6.6541397822290316	0	0
4.6301202427930566	-6.4947768417163934	0	0
4.519513391875039	-6.5722247669324121	0	0
5.7582956162988062	-5.6628176143961486	0	0
5.6707741145547041	-5.9890341208968936	0	0
5.9890341208968936	-5.6707741145547041	0	0
6.5698586324713899	-7.047248641984674	0	0
7.047248641984674	-6.5698586324713899	0	0
6.9040316391306886	-6.9040316391306886	0	0
6.7369451358010393	-7.071118142460338	0	0
7.071118142460338	-6.7369451358010393	0	0
5.6628176143961486	-5.7582956162988062	0	0
5.6875849693412883	-5.5921069674386308	0	0
5.5921069674386308	-5.6875849693412883	0	0
6.6541397822290316	-4.5768710322572232	0	0
6.6245945079085153	-4.9133291157662855	0	0
6.8827542586285766	-4.5446396127062245	0	0
7.69377479213819	-5.799342724995487	0	0
8.081014418218281	-5.2463084704053955	0	0
7.9980014560962527	-5.6002735229164591	0	0
7.8624675869682212	-5.7938355120229916	0	0
8.133535325224285	-5.4067115338099265	0	0
6.5766918570130128	-4.6874778831752408	0	0
6.5722247669324121	-4.519513391875039	0	0
6.4947768417163934	-4.6301202427930566	0	0
7.3477603625291987	-3.3518568698480449	0	0
7.3770882519631114	-3.6883318981228994	0	0
7.5673035815454019	-3.2804176216898293	0	0
8.5838708195992304	-4.3752226056967096	0	0
8.8691938139726645	-3.7633511910471054	0	0
8.8489065997158676	-4.1263514972465947	0	0
8.7490435516851655	-4.3405064923739562	0	0
8.9487696477465697	-3.9121965021192331	0	0
7.2906957636545116	-3.4742311527779659	0	0
7.2571304316079459	-3.3095950438316786	0	0
7.2000658327332587	-3.4319693267615996	0	0
7.817995289603517	-2.0249990621220295	0	0
7.9053025700755368	-2.3512627817592655	0	0
8.0217938687341839	-1.9165251161588914	0	0
9.2129980671320268	-2.8181579415347011	0	0
9.387735015119997	-2.1660514431341396	0	0
9.4307878408061239	-2.5270520819320144	0	0
9.3696299090103334	-2.7552893563722107	0	0
9.4919457726019143	-2.298814807491818	0	0
7.7830479000059229	-2.1554203618021415	0	0
7.7214057685238506	-1.9991171576133684	0	0
7.6864583789262566	-2.1295384572934806	0	0
8.0503435523153826	-0.63661551940254957	0	0
8.1929703135073222	-0.94274222518054329	0	0
8.2321980513843247	-0.49440944968190048	0	0
9.5617866636964006	-1.1754507130269864	0	0
9.6206282705119026	-0.50295154977902246	0	0
9.7257072997537435	-0.85096945276610514	0	0
9.7051127373683173	-1.0863441599028927	0	0
9.7463018621391697	-0.61559474562931771	0	0
8.0385752309522829	-0.77111535205214232	0	0
7.9507334851501001	-0.6278999451277838	0	0
7.9389651637870005	-0.76239977777737655	0	0
8.0385752309522829	0.77111535205214232	0	0
8.2321980513843247	0.49440944968190048	0	0
8.1929703135073222	0.94274222518054329	0	0
9.6206282705119026	0.50295154977902246	0	0
9.5617866636964006	1.1754507130269864	0	0
9.7257072997537435	0.85096945276610514	0	0
9.7463018621391697	0.61559474562931771	0	0
9.7051127373683173	1.0863441599028927	0	0
8.0503435523153826	0.63661551940254957	0	0
7.9389651637870005	0.76239977777737655	0	0
7.9507334851501001	0.6278999451277838	0	0
7.7830479000059229	2.1554203618021415	0	0
8.0217938687341839	1.9165251161588914	0	0
7.9053025700755368	2.3512627817592655	0	0
9.387735015119997	2.1660514431341396	0	0
9.2129980671320268	2.8181579415347011	0	0
9.4307878408061239	2.5270520819320144	0	0
9.4919457726019143	2.298814807491818	0	0
9.3696299090103334	2.7552893563722107	0	0
7.817995289603517	2.0249990621220295	0	0
7.6864583789262566	2.1295384572934806	0	0
7.7214057685238506	1.9991171576133684	0	0
7.2906957636545116	3.4742311527779659	0	0
7.5673035815454019	3.2804176216898293	0	0
7.3770882519631114	3.6883318981228994	0	0
8.8691938139726645	3.7633511910471054	0	0
8.5838708195992304	4.3752226056967096	0	0
8.8489065997158676	4.1263514972465947	0	0
8.9487696477465697	3.9121965021192331	0	0
8.7490435516851655	4.3405064923739562	0	0
7.3477603625291987	3.3518568698480449	0	0
7.2000658327332587	3.4319693267615996	0	0
7.2571304316079459	3.3095950438316786	0	0
6.5766918570130128	4.6874778831752408	0	0
6.8827542586285766	4.5446396127062245	0	0
6.6245945079085153	4.9133291157662855	0	0
8.081014418218281	5.2463084704053955	0	0
7.69377479213819	5.799342724995487	0	0
7.9980014560962527	5.6002735229164591	0	0
8.133535325224285	5.4067115338099265	0	0
7.8624675869682212	5.7938355120229916	0	0
6.6541397822290316	4.5768710322572232	0	0
6.4947768417163934	4.6301202427930566	0	0
6.5722247669324121	4.519513391875039	0	0
5.6628176143961486	5.7582956162988062	0	0
5.9890341208968936	5.6707741145547041	0	0
5.6707741145547041	5.9890341208968936	0	0
7.047248641984674	6.5698586324713899	0	0
6.5698586324713899	7.047248641984674	0	0
6.9040316391306886	6.9040316391306886	0	0
7.071118142460338	6.7369451358010393	0	0
6.7369451358010393	7.071118142460338	0	0
5.7582956162988062	5.6628176143961486	0	0
5.5921069674386308	5.6875849693412883	0	0
5.6875849693412883	5.5921069674386308	0	0
4.5768710322572232	6.6541397822290316	0	0
4.9133291157662855	6.6245945079085153	0	0
4.5446396127062245	6.8827542586285766	0	0
5.799342724995487	7.69377479213819	0	0
5.2463084704053955	8.081014418218281	0	0
5.6002735229164591	7.9980014560962527	0	0
5.7938355120229916	7.8624675869682212	0	0
5.4067115338099265	8.133535325224285	0	0
4.6874778831752408	6.5766918570130128	0	0
4.519513391875039	6.5722247669324121	0	0
4.6301202427930566	6.4947768417163934	0	0
3.3518568698480449	7.3477603625291987	0	0
3.6883318981228994	7.3770882519631114	0	0
3.2804176216898293	7.5673035815454019	0	0
4.3752226056967096	8.5838708195992304	0	0
3.7633511910471054	8.8691938139726645	0	0
4.1263514972465947	8.8489065997158676	0	0
4.3405064923739562	8.7490435516851655	0	0
3.9121965021192331	8.9487696477465697	0	0
3.4742311527779659	7.2906957636545116	0	0
3.3095950438316786	7.2571304316079459	0	0
3.4319693267615996	7.2000658327332587	0	0
2.0249990621220295	7.817995289603517	0	0
2.3512627817592655	7.9053025700755368	0	0
1.9165251161588914	8.0217938687341839	0	0
2.8181579415347011	9.2129980671320268	0	0
2.1660514431341396	9.387735015119997	0	0
2.5270520819320144	9.4307878408061239	0	0
2.7552893563722107	9.3696299090103334	0	0
2.298814807491818	9.4919457726019143	0	0
2.1554203618021415	7.7830479000059229	0	0
1.9991171576133684	7.7214057685238506	0	0
2.1295384572934806	7.6864583789262566	0	0
0.63661551940254957	8.0503435523153826	0	0
0.94274222518054329	8.1929703135073222	0	0
0.49440944968190048	8.2321980513843247	0	0
1.1754507130269864	9.5617866636964006	0	0
0.50295154977902246	9.6206282705119026	0	0
0.85096945276610514	9.7257072997537435	0	0
1.0863441599028927	9.7051127373683173	0	0
0.61559474562931771	9.7463018621391697	0	0
0.77111535205214232	8.0385752309522829	0	0
0.6278999451277838	7.9507334851501001	0	0
0.76239977777737655	7.9389651637870005	0	0
11.5	0	0	0
-11.5	0	0	0
0	6.6413035125902766	0	0
0.14121604059420736	6.8663121113546017	0	0
-0.14121604059420736	6.8663121113546017	0	0
0.35304010148551834	7.4288336082654123	0	0
-0.35304010148551834	7.4288336082654123	0	0
0	7.7663465064118995	0	0
0.088260025371379586	7.7663465064118995	0	0
-0.088260025371379586	7.7663465064118995	0	0
-0.088260025371379586	7.8663308165518497	0	0
0.088260025371379586	7.8663308165518497	0	0
-1.1860366201056953	6.5352491696466126	0	0
-1.0872587863841561	6.781883682076856	0	0
-1.3651807365809867	6.7314455729997604	0	0
-0.97927517717872281	7.3732509086139153	0	0
-1.6740800526707997	7.2471556359211764	0	0
-1.386952326990075	7.6423264591050879	0	0
-1.3001017175535654	7.65808836819168	0	0
-1.4738029364265846	7.6265645500184958	0	0
-1.4916586259063949	7.724952220237312	0	0
-1.3179574070333757	7.7564760384104963	0	0
-2.3339530455612847	6.2186939093047036	0	0
-2.2807978439496419	6.4790119639496044	0	0
-2.5452577741047722	6.379756868198557	0	0
-2.2801398049980985	7.0801795526863325	0	0
-2.9412896303859242	6.8320418133087157	0	0
-2.7293268628908942	7.2721464431515894	0	0
-2.6466831347174158	7.3031636605737917	0	0
-2.8119705910643726	7.2411292257293871	0	0
-2.847108073445217	7.334751181014914	0	0
-2.6818206170982601	7.3967856158593186	0	0
-3.4068542337288079	5.7020895219926109	0	0
-3.4010338389809083	5.9677183455807432	0	0
-3.6435243391915981	5.8228364064081868	0	0
-3.5077281022165039	6.5593494349647967	0	0
-4.1139543527432281	6.1971445870334056	0	0
-3.9839785105160339	6.6680287920018833	0	0
-3.9082002292001934	6.7133043979933067	0	0
-4.059756791831874	6.6227531860104598	0	0
-4.1110467185248778	6.7085977022461449	0	0
-3.9594901558931968	6.7991489142289918	0	0
-4.3702555339255822	5.0021566699480857	0	0
-4.4119582379269291	5.2645567308227079	0	0
-4.6246829712636428	5.0787046065474275	0	0
-4.6225773645986523	5.8276308208716232	0	0
-5.1543891979404366	5.3630005101834213	0	0
-5.1105808872741001	5.8495266636329957	0	0
-5.0441044081063771	5.9076054524690207	0	0
-5.1770573664418231	5.7914478747969707	0	0
-5.2428512251122612	5.8667549561415546	0	0
-5.1098982667768151	5.9829125338136047	0	0
-5.1931881032293115	4.141434278795705	0	0
-5.2810737157281276	4.3921711684422187	0	0
-5.4571948492146332	4.1713225170867387	0	0
-5.5888483137184188	4.9085890668807615	0	0
-6.0291511474346837	4.3564674384920625	0	0
-6.0729189994396542	4.8429970986395725	0	0
-6.0178811452251209	4.9120123021881597	0	0
-6.1279568536541875	4.7739818950909854	0	0
-6.2061398984350848	4.8363308674832783	0	0
-6.0960641900060182	4.9743612745804526	0	0
-5.8491845860761593	3.1475994347271641	0	0
-5.9804276916541168	3.3786136660932127	0	0
-6.1142844047846312	3.1298677124157597	0	0
-6.3754638121642673	3.8317762676696074	0	0
-6.7101055949905524	3.2099113834759758	0	0
-6.8400418967922318	3.680805707363775	0	0
-6.7982116739389467	3.7585388178879788	0	0
-6.881872119645517	3.6030725968395712	0	0
-6.9699311406812772	3.650459462607937	0	0
-6.8862706949747068	3.8059256836563446	0	0
-6.3171051455827598	2.0525976993537864	0	0
-6.4874848390983226	2.2564626042279952	0	0
-6.5747748475992198	1.9878175784479404	0	0
-6.9570790771376769	2.6318023535234887	0	0
-7.1753040983899199	1.960189789073352	0	0
-7.3872286344128142	2.4003096592746918	0	0
-7.3599505067562836	2.4842612298309588	0	0
-7.4145067620693448	2.3163580887184247	0	0
-7.5096102908969673	2.3472597881477122	0	0
-7.4550540355839061	2.5151629292602462	0	0
-6.5817639345231891	0.89162375430022001	0	0
-6.7857964563698099	1.0617821655815074	0	0
-6.8237141862381465	0.78188210042197759	0	0
-7.3148366259205284	1.3472281612049612	0	0
-7.4096309505913718	0.6474779983061365	0	0
-7.6967208684271329	1.0426656478078327	0	0
-7.6848715778432775	1.1301344181701858	0	0
-7.7085701590109883	0.95519687744547954	0	0
-7.8076581054133412	0.96862020402724114	0	0
-7.7839595242456303	1.1435577447519474	0	0
-6.6348534239172867	-0.29800771239165325	0	0
-6.8659801203892741	-0.16702537872579867	0	0
-6.853306864565111	-0.44918315955069155	0	0
-7.43746023365716	0.019351565026391293	0	0
-7.4057770940967513	-0.68604288703584082	0	0
-7.7588037667168139	-0.34849049612461264	0	0
-7.7627641591618648	-0.26031618961683362	0	0
-7.7548433742717631	-0.43666480263239166	0	0
-7.8547305788261772	-0.4411512856674431	0	0
-7.8626513637162789	-0.26480267265188506	0	0
-6.4755464046991289	-1.4780609659795649	0	0
-6.726367578128305	-1.3904464493399822	0	0
-6.6635106654825291	-1.6658294437241696	0	0
-7.3219920553783542	-1.3091016549331189	0	0
-7.1648497737639154	-1.9975591408935873	0	0
-7.5725099902305653	-1.7284458687421196	0	0
-7.5921527754323703	-1.6423886829970611	0	0
-7.5528672050287602	-1.8145030544871781	0	0
-7.6503560547441305	-1.8367551478824122	0	0
-7.6896416251477406	-1.6646407763922952	0	0
-6.1077488202110883	-2.6106081187894805	0	0
-6.3701906348961845	-2.5691851014434075	0	0
-6.2591703385403097	-2.8289269137846267	0	0
-6.9707850234309872	-2.5954984642488355	0	0
-6.6932342825413	-3.244852995101883	0	0
-7.1424071527468813	-3.0528475629121639	0	0
-7.1771009953580922	-2.9716782465555331	0	0
-7.1077133101356704	-3.1340168792687946	0	0
-7.1996649956954704	-3.1733193823554386	0	0
-7.2690526809178921	-3.0109807496421772	0	0
-5.543507872298215	-3.6592480459669638	0	0
-5.8091306458763396	-3.6653507700102952	0	0
-5.6535152551254351	-3.9010973312824055	0	0
-6.3953798844461973	-3.7984808607546792	0	0
-6.0063414075689368	-4.3878472639349546	0	0
-6.4825832633115752	-4.2791280693638969	0	0
-6.5312130729212328	-4.2054572689663621	0	0
-6.4339534537019176	-4.3527988697614317	0	0
-6.5174105354805727	-4.4078885657546012	0	0
-6.6146701546998878	-4.2605469649595316	0	0
-4.801050680300512	-4.5902754111422475	0	0
-5.06131558186578	-4.643708606864525	0	0
-4.8661067595104734	-4.847880985518465	0	0
-5.6143734246012986	-4.8793777854971889	0	0
-5.1263513687130313	-5.3898087321320407	0	0
-5.6143531322385867	-5.367872336388487	0	0
-5.6753558892246199	-5.304068468059131	0	0
-5.5533503752525535	-5.4316762047178431	0	0
-5.6256298214948108	-5.5007824456034413	0	0
-5.7476353354668772	-5.3731747089447293	0	0
-3.9042725572743802	-5.3737598899401107	0	0
-4.1508139160548652	-5.4728061494199594	0	0
-3.9222861599230483	-5.6388416004104744	0	0
-4.6529034349401721	-5.8034395236148386	0	0
-4.0815840446106284	-6.2185281510911254	0	0
-4.5656599608472659	-6.28407981481564	0	0
-4.6370748846384586	-6.2321937363811042	0	0
-4.4942450370560731	-6.3359658932501759	0	0
-4.553023558094508	-6.4168674322981687	0	0
-4.6958534056768935	-6.313095275429097	0	0
-2.8820057698345156	-5.984495679265339	0	0
-3.1068987990190258	-6.1259705480973006	0	0
-2.8523985241326639	-6.2485324647493998	0	0
-3.54188123453712	-6.5409386785032551	0	0
-2.9056305473212158	-6.8473434701335032	0	0
-3.3702202285411618	-6.9982748150553959	0	0
-3.44975156444315	-6.9599742161016147	0	0
-3.2906888926391735	-7.0365754140091772	0	0
-3.3340772663477365	-7.1266715330756405	0	0
-3.493139938151713	-7.050070335168078	0	0
-1.7671086936852207	-6.402781380294992	0	0
-1.9631229375573862	-6.5821342394580391	0	0
-1.6908343925145406	-6.657283370211891	0	0
-2.3170142747163771	-7.0680909527425833	0	0
-1.6362929121092638	-7.2559637796272103	0	0
-2.0664585504389348	-7.4874185029948555	0	0
-2.1515487207648238	-7.4639343996342769	0	0
-1.9813683801130455	-7.5109026063554341	0	0
-2.0079720646676629	-7.6072959842626613	0	0
-2.1781524053194414	-7.5603277775415041	0	0
-0.59541527691019935	-6.6149903431083033	0	0
-0.75624459301331415	-6.8264469520956021	0	0
-0.47493152155022944	-6.8517679414932902	0	0
-1.0176613475395586	-7.367748969262693	0	0
-0.31437866888184707	-7.4310514427569112	0	0
-0.69627917876806145	-7.735575861539016	0	0
-0.78418951360027545	-7.7276630523522387	0	0
-0.60836884393584745	-7.7434886707257933	0	0
-0.61733277482619076	-7.8430768381366445	0	0
-0.79315344449061875	-7.8272512197630899	0	0
0.5954152769101928	-6.6149903431083024	0	0
0.47493152155022272	-6.8517679414932884	0	0
0.75624459301330726	-6.8264469520956004	0	0
0.3143786688818398	-7.4310514427569094	0	0
1.0176613475395513	-7.3677489692626912	0	0
0.69627917876805379	-7.7355758615390142	0	0
0.6083688439358399	-7.7434886707257915	0	0
0.78418951360026767	-7.7276630523522369	0	0
0.79315344449061087	-7.8272512197630881	0	0
0.61733277482618309	-7.8430768381366427	0	0
1.7671086936852169	-6.402781380294992	0	0
1.6908343925145368	-6.657283370211891	0	0
1.9631229375573824	-6.5821342394580391	0	0
1.6362929121092593	-7.2559637796272112	0	0
2.3170142747163731	-7.0680909527425841	0	0
2.0664585504389303	-7.4874185029948563	0	0
1.9813683801130411	-7.5109026063554349	0	0
2.1515487207648194	-7.4639343996342777	0	0