[Format]      =  4.0
[Frequency]   =  50
[Precision]   =  1e-008
[MinAngle]    =  30
[DoSmartMesh] =  1
[Depth]       =  1
[LengthUnits] =  centimeters
[ProblemType] =  planar
[Coordinates] =  cartesian
[ACSolver]    =  0
[PrevType]    =  0
[PrevSoln]    =  ""
[Comment]     =  "Add comments here."
[PointProps]   = 0
[BdryProps]   = 1
  <BeginBdry>
    <BdryName> = "New Boundary"
    <BdryType> = 0
    <A_0> = 0
    <A_1> = 0
    <A_2> = 0
    <Phi> = 0
    <c0> = 0
    <c0i> = 0
    <c1> = 0
    <c1i> = 0
    <Mu_ssd> = 0
    <Sigma_ssd> = 0
    <innerangle> = 0
    <outerangle> = 0
  <EndBdry>
[BlockProps]  = 6
  <BeginBlock>
    <BlockName> = "M-19 Steel"
    <Mu_x> = 5000
    <Mu_y> = 5000
    <H_c> = 0
    <H_cAngle> = 0
    <J_re> = 0
    <J_im> = 0
    <Sigma> = 0
    <d_lam> = 0
    <Phi_h> = 0
    <Phi_hx> = 0
    <Phi_hy> = 0
    <LamType> = 0
    <LamFill> = 1
    <NStrands> = 0
    <WireD> = 0
    <BHPoints> = 0
  <EndBlock>
  <BeginBlock>
    <BlockName> = "Copper"
    <Mu_x> = 58
    <Mu_y> = 58
    <H_c> = 0
    <H_cAngle> = 0
    <J_re> = 0
    <J_im> = 0
    <Sigma> = 0
    <d_lam> = 0
    <Phi_h> = 0
    <Phi_hx> = 0
    <Phi_hy> = 0
    <LamType> = 0
    <LamFill> = 1
    <NStrands> = 0
    <WireD> = 0
    <BHPoints> = 0
  <EndBlock>
  <BeginBlock>
    <BlockName> = "Aluminum"
    <Mu_x> = 37
    <Mu_y> = 37
    <H_c> = 0
    <H_cAngle> = 0
    <J_re> = 0
    <J_im> = 0
    <Sigma> = 0
    <d_lam> = 0
    <Phi_h> = 0
    <Phi_hx> = 0
    <Phi_hy> = 0
    <LamType> = 0
    <LamFill> = 1
    <NStrands> = 0
    <WireD> = 0
    <BHPoints> = 0
  <EndBlock>
  <BeginBlock>
    <BlockName> = "Air"
    <Mu_x> = 1
    <Mu_y> = 1
    <H_c> = 1
    <H_cAngle> = 0
    <J_re> = 0
    <J_im> = 0
    <Sigma> = 0
    <d_lam> = 0
    <Phi_h> = 0
    <Phi_hx> = 0
    <Phi_hy> = 0
    <LamType> = 0
    <LamFill> = 1
    <NStrands> = 0
    <WireD> = 0
    <BHPoints> = 0
  <EndBlock>
  <BeginBlock>
    <BlockName> = "M-19 Steel"
    <Mu_x> = 5000
    <Mu_y> = 5000
    <H_c> = 0
    <H_cAngle> = 0
    <J_re> = 0
    <J_im> = 0
    <Sigma> = 0
    <d_lam> = 0
    <Phi_h> = 0
    <Phi_hx> = 0
    <Phi_hy> = 0
    <LamType> = 0
    <LamFill> = 1
    <NStrands> = 0
    <WireD> = 0
    <BHPoints> = 0
  <EndBlock>
  <BeginBlock>
    <BlockName> = "Air"
    <Mu_x> = 1
    <Mu_y> = 1
    <H_c> = 0
    <H_cAngle> = 0
    <J_re> = 0
    <J_im> = 0
    <Sigma> = 0
    <d_lam> = 0
    <Phi_h> = 0
    <Phi_hx> = 0
    <Phi_hy> = 0
    <LamType> = 0
    <LamFill> = 1
    <NStrands> = 0
    <WireD> = 0
    <BHPoints> = 0
  <EndBlock>
[CircuitProps]  = 6
  <BeginCircuit>
    <CircuitName> = "A"
    <TotalAmps_re> = 1
    <TotalAmps_im> = 0
    <CircuitType> = 1
  <EndCircuit>
  <BeginCircuit>
    <CircuitName> = "C"
    <TotalAmps_re> = 1
    <TotalAmps_im> = 0
    <CircuitType> = 1
  <EndCircuit>
  <BeginCircuit>
    <CircuitName> = "B"
    <TotalAmps_re> = 1
    <TotalAmps_im> = 0
    <CircuitType> = 1
  <EndCircuit>
  <BeginCircuit>
    <CircuitName> = "A1"
    <TotalAmps_re> = -1
    <TotalAmps_im> = -0
    <CircuitType> = 1
  <EndCircuit>
  <BeginCircuit>
    <CircuitName> = "C1"
    <TotalAmps_re> = -1
    <TotalAmps_im> = -0
    <CircuitType> = 1
  <EndCircuit>
  <BeginCircuit>
    <CircuitName> = "B1"
    <TotalAmps_re> = -1
    <TotalAmps_im> = -0
    <CircuitType> = 1
  <EndCircuit>
[NumPoints] = 498
-8.8295490179447036	60.359536832012715	0	0
-4.4922925553275252	60.930588922975311	0	0
-11.431902895515011	60.016905577435161	0	0
-6.1891330541877956	73.818436697609201	0	0
-13.128743394375281	72.904753352069065	0	0
-9.6589382242815383	73.361595024839133	0	0
-7.0565843467112312	73.704226279416687	0	0
-12.261292101851845	73.018963770261578	0	0
-7.0946464328978323	60.587957668397756	0	0
-8.6990228257246827	59.368163926271649	0	0
-6.9641202406778113	59.59658476265669	0	0
-24.152073518917003	56.021077823073789	0	0
-20.110152609275517	57.695317836997162	0	0
-26.577226064701897	55.016533814719764	0	0
-25.085037222076387	69.705597111360447	0	0
-31.552110677502768	67.026813089083049	0	0
-28.318573949789577	68.366205100221748	0	0
-25.893421404004684	69.370749108575765	0	0
-30.743726495574471	67.361661091867731	0	0
-22.53530515506041	56.690773828643138	0	0
-23.769390087163089	55.097210186584306	0	0
-22.152621723306495	55.766906192153655	0	0
-37.828626562451085	47.861811599928764	0	0
-34.357711146655561	50.525142587173065	0	0
-39.911175811928402	46.263813007582186	0	0
-42.271608937324345	60.838719822679771	0	0
-47.825073602597186	56.577390243088892	0	0
-45.048341269960765	58.708055032884332	0	0
-42.965792020483448	60.306053625230916	0	0
-47.130890519438083	57.110056440537747	0	0
-36.440260396132878	48.927143994826487	0	0
-37.219865193938098	47.068459504889788	0	0
-35.831499027619891	48.133791899787511	0	0
-48.927143994826487	36.440260396132878	0	0
-46.263813007582186	39.911175811928402	0	0
-50.525142587173065	34.357711146655561	0	0
-56.577390243088892	47.825073602597186	0	0
-60.838719822679771	42.271608937324345	0	0
-58.708055032884332	45.048341269960765	0	0
-57.110056440537747	47.130890519438083	0	0
-60.306053625230916	42.965792020483448	0	0
-47.861811599928764	37.828626562451085	0	0
-48.133791899787511	35.831499027619891	0	0
-47.068459504889788	37.219865193938098	0	0
-56.690773828643138	22.53530515506041	0	0
-55.016533814719764	26.577226064701897	0	0
-57.695317836997162	20.110152609275517	0	0
-67.026813089083049	31.552110677502768	0	0
-69.705597111360447	25.085037222076387	0	0
-68.366205100221748	28.318573949789577	0	0
-67.361661091867731	30.743726495574471	0	0
-69.370749108575765	25.893421404004684	0	0
-56.021077823073789	24.152073518917003	0	0
-55.766906192153655	22.152621723306495	0	0
-55.097210186584306	23.769390087163089	0	0
-60.587957668397756	7.0946464328978323	0	0
-60.016905577435161	11.431902895515011	0	0
-60.930588922975311	4.4922925553275252	0	0
-72.904753352069065	13.128743394375281	0	0
-73.818436697609201	6.1891330541877956	0	0
-73.361595024839133	9.6589382242815383	0	0
-73.018963770261578	12.261292101851845	0	0
-73.704226279416687	7.0565843467112312	0	0
-60.359536832012715	8.8295490179447036	0	0
-59.59658476265669	6.9641202406778113	0	0
-59.368163926271649	8.6990228257246827	0	0
-60.359536832012715	-8.8295490179447036	0	0
-60.930588922975311	-4.4922925553275252	0	0
-60.016905577435161	-11.431902895515011	0	0
-73.818436697609201	-6.1891330541877956	0	0
-72.904753352069065	-13.128743394375281	0	0
-73.361595024839133	-9.6589382242815383	0	0
-73.704226279416687	-7.0565843467112312	0	0
-73.018963770261578	-12.261292101851845	0	0
-60.587957668397756	-7.0946464328978323	0	0
-59.368163926271649	-8.6990228257246827	0	0
-59.59658476265669	-6.9641202406778113	0	0
-56.021077823073789	-24.152073518917003	0	0
-57.695317836997162	-20.110152609275517	0	0
-55.016533814719764	-26.577226064701897	0	0
-69.705597111360447	-25.085037222076387	0	0
-67.026813089083049	-31.552110677502768	0	0
-68.366205100221748	-28.318573949789577	0	0
-69.370749108575765	-25.893421404004684	0	0
-67.361661091867731	-30.743726495574471	0	0
-56.690773828643138	-22.53530515506041	0	0
-55.097210186584306	-23.769390087163089	0	0
-55.766906192153655	-22.152621723306495	0	0
-47.861811599928764	-37.828626562451085	0	0
-50.525142587173065	-34.357711146655561	0	0
-46.263813007582186	-39.911175811928402	0	0
-60.838719822679771	-42.271608937324345	0	0
-56.577390243088892	-47.825073602597186	0	0
-58.708055032884332	-45.048341269960765	0	0
-60.306053625230916	-42.965792020483448	0	0
-57.110056440537747	-47.130890519438083	0	0
-48.927143994826487	-36.440260396132878	0	0
-47.068459504889788	-37.219865193938098	0	0
-48.133791899787511	-35.831499027619891	0	0
-36.440260396132878	-48.927143994826487	0	0
-39.911175811928402	-46.263813007582186	0	0
-34.357711146655561	-50.525142587173065	0	0
-47.825073602597186	-56.577390243088892	0	0
-42.271608937324345	-60.838719822679771	0	0
-45.048341269960765	-58.708055032884332	0	0
-47.130890519438083	-57.110056440537747	0	0
-42.965792020483448	-60.306053625230916	0	0
-37.828626562451085	-47.861811599928764	0	0
-35.831499027619891	-48.133791899787511	0	0
-37.219865193938098	-47.068459504889788	0	0
-22.53530515506041	-56.690773828643138	0	0
-26.577226064701897	-55.016533814719764	0	0
-20.110152609275517	-57.695317836997162	0	0
-31.552110677502768	-67.026813089083049	0	0
-25.085037222076387	-69.705597111360447	0	0
-28.318573949789577	-68.366205100221748	0	0
-30.743726495574471	-67.361661091867731	0	0
-25.893421404004684	-69.370749108575765	0	0
-24.152073518917003	-56.021077823073789	0	0
-22.152621723306495	-55.766906192153655	0	0
-23.769390087163089	-55.097210186584306	0	0
-7.0946464328978323	-60.587957668397756	0	0
-11.431902895515011	-60.016905577435161	0	0
-4.4922925553275252	-60.930588922975311	0	0
-13.128743394375281	-72.904753352069065	0	0
-6.1891330541877956	-73.818436697609201	0	0
-9.6589382242815383	-73.361595024839133	0	0
-12.261292101851845	-73.018963770261578	0	0
-7.0565843467112312	-73.704226279416687	0	0
-8.8295490179447036	-60.359536832012715	0	0
-6.9641202406778113	-59.59658476265669	0	0
-8.6990228257246827	-59.368163926271649	0	0
8.8295490179447036	-60.359536832012715	0	0
4.4922925553275252	-60.930588922975311	0	0
11.431902895515011	-60.016905577435161	0	0
6.1891330541877956	-73.818436697609201	0	0
13.128743394375281	-72.904753352069065	0	0
9.6589382242815383	-73.361595024839133	0	0
7.0565843467112312	-73.704226279416687	0	0
12.261292101851845	-73.018963770261578	0	0
7.0946464328978323	-60.587957668397756	0	0
8.6990228257246827	-59.368163926271649	0	0
6.9641202406778113	-59.59658476265669	0	0
24.152073518917003	-56.021077823073789	0	0
20.110152609275517	-57.695317836997162	0	0
26.577226064701897	-55.016533814719764	0	0
25.085037222076387	-69.705597111360447	0	0
31.552110677502768	-67.026813089083049	0	0
28.318573949789577	-68.366205100221748	0	0
25.893421404004684	-69.370749108575765	0	0
30.743726495574471	-67.361661091867731	0	0
22.53530515506041	-56.690773828643138	0	0
23.769390087163089	-55.097210186584306	0	0
22.152621723306495	-55.766906192153655	0	0
37.828626562451085	-47.861811599928764	0	0
34.357711146655561	-50.525142587173065	0	0
39.911175811928402	-46.263813007582186	0	0
42.271608937324345	-60.838719822679771	0	0
47.825073602597186	-56.577390243088892	0	0
45.048341269960765	-58.708055032884332	0	0
42.965792020483448	-60.306053625230916	0	0
47.130890519438083	-57.110056440537747	0	0
36.440260396132878	-48.927143994826487	0	0
37.219865193938098	-47.068459504889788	0	0
35.831499027619891	-48.133791899787511	0	0
48.927143994826487	-36.440260396132878	0	0
46.263813007582186	-39.911175811928402	0	0
50.525142587173065	-34.357711146655561	0	0
56.577390243088892	-47.825073602597186	0	0
60.838719822679771	-42.271608937324345	0	0
58.708055032884332	-45.048341269960765	0	0
57.110056440537747	-47.130890519438083	0	0
60.306053625230916	-42.965792020483448	0	0
47.861811599928764	-37.828626562451085	0	0
48.133791899787511	-35.831499027619891	0	0
47.068459504889788	-37.219865193938098	0	0
56.690773828643138	-22.53530515506041	0	0
55.016533814719764	-26.577226064701897	0	0
57.695317836997162	-20.110152609275517	0	0
67.026813089083049	-31.552110677502768	0	0
69.705597111360447	-25.085037222076387	0	0
68.366205100221748	-28.318573949789577	0	0
67.361661091867731	-30.743726495574471	0	0
69.370749108575765	-25.893421404004684	0	0
56.021077823073789	-24.152073518917003	0	0
55.766906192153655	-22.152621723306495	0	0
55.097210186584306	-23.769390087163089	0	0
60.587957668397756	-7.0946464328978323	0	0
60.016905577435161	-11.431902895515011	0	0
60.930588922975311	-4.4922925553275252	0	0
72.904753352069065	-13.128743394375281	0	0
73.818436697609201	-6.1891330541877956	0	0
73.361595024839133	-9.6589382242815383	0	0
73.018963770261578	-12.261292101851845	0	0
73.704226279416687	-7.0565843467112312	0	0
60.359536832012715	-8.8295490179447036	0	0
59.59658476265669	-6.9641202406778113	0	0
59.368163926271649	-8.6990228257246827	0	0
60.359536832012715	8.8295490179447036	0	0
60.930588922975311	4.4922925553275252	0	0
60.016905577435161	11.431902895515011	0	0
73.818436697609201	6.1891330541877956	0	0
72.904753352069065	13.128743394375281	0	0
73.361595024839133	9.6589382242815383	0	0
73.704226279416687	7.0565843467112312	0	0
73.018963770261578	12.261292101851845	0	0
60.587957668397756	7.0946464328978323	0	0
59.368163926271649	8.6990228257246827	0	0
59.59658476265669	6.9641202406778113	0	0
56.021077823073789	24.152073518917003	0	0
57.695317836997162	20.110152609275517	0	0
55.016533814719764	26.577226064701897	0	0
69.705597111360447	25.085037222076387	0	0
67.026813089083049	31.552110677502768	0	0
68.366205100221748	28.318573949789577	0	0
69.370749108575765	25.893421404004684	0	0
67.361661091867731	30.743726495574471	0	0
56.690773828643138	22.53530515506041	0	0
55.097210186584306	23.769390087163089	0	0
55.766906192153655	22.152621723306495	0	0
47.861811599928764	37.828626562451085	0	0
50.525142587173065	34.357711146655561	0	0
46.263813007582186	39.911175811928402	0	0
60.838719822679771	42.271608937324345	0	0
56.577390243088892	47.825073602597186	0	0
58.708055032884332	45.048341269960765	0	0
60.306053625230916	42.965792020483448	0	0
57.110056440537747	47.130890519438083	0	0
48.927143994826487	36.440260396132878	0	0
47.068459504889788	37.219865193938098	0	0
48.133791899787511	35.831499027619891	0	0
36.440260396132878	48.927143994826487	0	0
39.911175811928402	46.263813007582186	0	0
34.357711146655561	50.525142587173065	0	0
47.825073602597186	56.577390243088892	0	0
42.271608937324345	60.838719822679771	0	0
45.048341269960765	58.708055032884332	0	0
47.130890519438083	57.110056440537747	0	0
42.965792020483448	60.306053625230916	0	0
37.828626562451085	47.861811599928764	0	0
35.831499027619891	48.133791899787511	0	0
37.219865193938098	47.068459504889788	0	0
22.53530515506041	56.690773828643138	0	0
26.577226064701897	55.016533814719764	0	0
20.110152609275517	57.695317836997162	0	0
31.552110677502768	67.026813089083049	0	0
25.085037222076387	69.705597111360447	0	0
28.318573949789577	68.366205100221748	0	0
30.743726495574471	67.361661091867731	0	0
25.893421404004684	69.370749108575765	0	0
24.152073518917003	56.021077823073789	0	0
22.152621723306495	55.766906192153655	0	0
23.769390087163089	55.097210186584306	0	0
7.0946464328978323	60.587957668397756	0	0
11.431902895515011	60.016905577435161	0	0
4.4922925553275252	60.930588922975311	0	0
13.128743394375281	72.904753352069065	0	0
6.1891330541877956	73.818436697609201	0	0
9.6589382242815383	73.361595024839133	0	0
12.261292101851845	73.018963770261578	0	0
7.0565843467112312	73.704226279416687	0	0
8.8295490179447036	60.359536832012715	0	0
6.9641202406778113	59.59658476265669	0	0
8.6990228257246827	59.368163926271649	0	0
84	0	0	0
-84	0	0	0
0	45.992782664376946	0	0
2.9995293041984965	45.992782664376946	0	0
-2.9995293041984965	45.992782664376946	0	0
2.9995293041984965	57.990899881170932	0	0
-2.9995293041984965	57.990899881170932	0	0
0	57.990899881170932	0	0
0.74988232604962413	57.990899881170932	0	0
-0.74988232604962413	57.990899881170932	0	0
-0.74988232604962413	58.990742982570431	0	0
0.74988232604962413	58.990742982570431	0	0
-12.410651472149725	44.292893015339125	0	0
-9.5219845363667392	45.102283328740192	0	0
-15.299318407932711	43.483502701938058	0	0
-12.759545789971014	56.656951071872136	0	0
-18.536879661536986	55.038170445070001	0	0
-15.648212725754	55.847560758471069	0	0
-14.926045991808254	56.049908336821339	0	0
-16.370379459699748	55.645213180120798	0	0
-16.640176230833436	56.608102158715127	0	0
-15.195842762941943	57.012797315415668	0	0
-23.900861153157138	39.30313657874779	0	0
-21.337613115412715	40.861888393084122	0	0
-26.46410919090156	37.744384764411457	0	0
-27.572620372758056	51.114880544061805	0	0
-32.699116448246897	47.99737691538914	0	0
-30.135868410502479	49.556128729725472	0	0
-29.495056401066375	49.945816683309559	0	0
-30.776680419938582	49.166440776141386	0	0
-31.296264358050696	50.02085678872286	0	0
-30.014640339178488	50.800232695891033	0	0
-33.618433342929656	31.397434975666791	0	0
-31.570774540168777	33.58994149803177	0	0
-35.666092145690534	29.204928453301815	0	0
-40.340800629628689	41.780576709075277	0	0
-44.436118235150445	37.395563664345318	0	0
-42.388459432389567	39.588070186710297	0	0
-41.876544731699347	40.136196817301538	0	0
-42.900374133079787	39.039943556119056	0	0
-43.631209640534777	39.722496490372684	0	0
-42.607380239154338	40.818749751555167	0	0
-40.842441499033654	21.162991570625586	0	0
-39.46224639660155	23.826629059692998	0	0
-42.222636601465759	18.499354081558174	0	0
-50.116796352871198	29.347409469421407	0	0
-52.877186557735406	24.020134491286584	0	0
-51.496991455303302	26.683771980353995	0	0
-51.151942679695274	27.349681352620848	0	0
-51.84204023091133	26.017862608087142	0	0
-52.729919393933798	26.477927642231176	0	0
-52.039821842717743	27.809746386764882	0	0
-45.035805254422904	9.3589766003405543	0	0
-44.425437215270257	12.296094334324657	0	0
-45.646173293575551	6.4218588663564518	0	0
-56.173908151206668	14.737566490935237	0	0
-57.394644229511961	8.8633310229670315	0	0
-56.784276190359314	11.800448756951134	0	0
-56.631684180571156	12.53472819044716	0	0
-56.936868200147472	11.066169323455108	0	0
-57.915907444808838	11.269625336505991	0	0
-57.610723425232521	12.738184203498042	0	0
-45.887916618653456	-3.139151014774872	0	0
-46.092643858747472	-0.14646080051486399	0	0
-45.68318937855944	-6.1318412290348796	0	0
-58.063404715787506	-0.96536976089091731	0	0
-57.653950235599474	-6.9507501894109334	0	0
-57.85867747569349	-3.9580599751509253	0	0
-57.90985928571699	-3.2098874215859232	0	0
-57.80749566566999	-4.706232528715927	0	0
-58.805059070423326	-4.7744749420805981	0	0
-58.907422690470327	-3.2781298349505943	0	0
-43.343200691377035	-15.404462151870886	0	0
-44.347839527368613	-12.577731671998471	0	0
-42.338561855385457	-18.231192631743301	0	0
-55.654761446858274	-16.596287015964787	0	0
-53.645483774875117	-22.249747975709621	0	0
-54.650122610866696	-19.423017495837204	0	0
-54.901282319864592	-18.716334875869101	0	0
-54.398962901868799	-20.129700115805306	0	0
-55.341206395159602	-20.464579727802498	0	0
-55.843525813155395	-19.051214487866293	0	0
-37.580531118511352	-26.527293235252259	0	0
-39.310571981679978	-24.076389031871084	0	0
-35.850490255342727	-28.978197438633433	0	0
-49.114188795204676	-30.996552484545585	0	0
-45.654107068867425	-35.898360891307938	0	0
-47.384147932036051	-33.44745668792676	0	0
-47.816658147828207	-32.834730637081464	0	0
-46.951637716243894	-34.060182738772056	0	0
-47.768605784037618	-34.636863026494929	0	0
-48.633626215621931	-33.411410924804336	0	0
-29.030041358781556	-35.682676229859418	0	0
-31.357172417250649	-33.789412662982357	0	0
-26.702910300312464	-37.575939796736478	0	0
-38.930226684758885	-43.097936896858727	0	0
-34.275964567820701	-46.884464030612847	0	0
-36.603095626289793	-44.991200463735787	0	0
-37.184878390907066	-44.51788457201652	0	0
-36.02131286167252	-45.464516355455054	0	0
-36.652400717298207	-46.240226708278087	0	0
-37.815966246532753	-45.293594924839553	0	0
-18.326450091696355	-42.191239854198543	0	0
-21.078052690883215	-40.996036587348783	0	0
-15.574847492509493	-43.386443121048302	0	0
-25.858865758282263	-52.002446984096231	0	0
-20.355660559908543	-54.39285351779575	0	0
-23.107263159095403	-53.197650250945991	0	0
-23.79516380889212	-52.898849434233547	0	0
-22.419362509298686	-53.496451067658434	0	0
-22.817763598248607	-54.413651934054052	0	0
-24.193564897842041	-53.816050300629165	0	0
-6.2636658584252674	-45.568358988281091	0	0
-9.2355153576609901	-45.159859040992487	0	0
-3.2918163591895437	-45.976858935569695	0	0
-10.869515146815409	-57.047257037935381	0	0
-4.9258161483439613	-57.864256932512589	0	0
-7.8976656475796849	-57.455756985223985	0	0
-8.6406280223886149	-57.353631998401831	0	0
-7.154703272770754	-57.55788197204614	0	0
-7.290869921866955	-58.548498471791383	0	0
-8.7767946714848168	-58.344248498147074	0	0
6.2636658584252674	-45.568358988281091	0	0
3.2918163591895437	-45.976858935569695	0	0
9.2355153576609901	-45.159859040992487	0	0
4.9258161483439613	-57.864256932512589	0	0
10.869515146815409	-57.047257037935381	0	0
7.8976656475796849	-57.455756985223985	0	0
7.154703272770754	-57.55788197204614	0	0
8.6406280223886149	-57.353631998401831	0	0
8.7767946714848168	-58.344248498147074	0	0
7.290869921866955	-58.548498471791383	0	0
18.326450091696355	-42.19123985419855	0	0
15.574847492509493	-43.386443121048309	0	0
21.078052690883219	-40.99603658734879	0	0
20.355660559908543	-54.392853517795757	0	0
25.858865758282263	-52.002446984096238	0	0
23.107263159095403	-53.197650250945998	0	0
22.419362509298686	-53.496451067658441	0	0
23.79516380889212	-52.898849434233554	0	0
24.193564897842041	-53.816050300629172	0	0
22.817763598248607	-54.413651934054059	0	0
29.030041358781556	-35.682676229859418	0	0
26.702910300312464	-37.575939796736478	0	0
31.357172417250649	-33.789412662982357	0	0
34.275964567820701	-46.884464030612847	0	0
38.930226684758885	-43.097936896858727	0	0
36.603095626289793	-44.991200463735787	0	0
36.02131286167252	-45.464516355455054	0	0
37.184878390907066	-44.51788457201652	0	0
37.815966246532753	-45.293594924839553	0	0
36.652400717298207	-46.240226708278087	0	0
37.580531118511367	-26.527293235252259	0	0
35.850490255342741	-28.978197438633433	0	0
39.310571981679992	-24.076389031871084	0	0
45.654107068867447	-35.898360891307938	0	0
49.114188795204697	-30.996552484545585	0	0
47.384147932036072	-33.44745668792676	0	0
46.951637716243916	-34.060182738772056	0	0
47.816658147828228	-32.834730637081464	0	0
48.633626215621952	-33.411410924804336	0	0
47.768605784037639	-34.636863026494929	0	0
43.343200691377035	-15.404462151870867	0	0
42.338561855385457	-18.231192631743284	0	0
44.347839527368613	-12.577731671998452	0	0
53.645483774875117	-22.249747975709596	0	0
55.654761446858274	-16.596287015964762	0	0
54.650122610866696	-19.423017495837179	0	0
54.398962901868799	-20.129700115805282	0	0
54.901282319864592	-18.716334875869077	0	0
55.843525813155395	-19.051214487866268	0	0
55.341206395159602	-20.464579727802473	0	0
45.887916618653456	-3.139151014774872	0	0
45.68318937855944	-6.1318412290348796	0	0
46.092643858747472	-0.14646080051486399	0	0
57.653950235599474	-6.9507501894109334	0	0
58.063404715787506	-0.96536976089091731	0	0
57.85867747569349	-3.9580599751509253	0	0
57.80749566566999	-4.706232528715927	0	0
57.90985928571699	-3.2098874215859232	0	0
58.907422690470327	-3.2781298349505943	0	0
58.805059070423326	-4.7744749420805981	0	0
45.035805254422897	9.3589766003405632	0	0
45.646173293575544	6.4218588663564606	0	0
44.42543721527025	12.296094334324666	0	0
57.394644229511954	8.8633310229670421	0	0
56.17390815120666	14.737566490935247	0	0
56.784276190359307	11.800448756951145	0	0
56.936868200147465	11.066169323455119	0	0
56.631684180571149	12.53472819044717	0	0
57.610723425232514	12.738184203498053	0	0
57.91590744480883	11.269625336506001	0	0
40.842441499033662	21.162991570625568	0	0
42.222636601465766	18.499354081558156	0	0
39.462246396601557	23.82662905969298	0	0
52.877186557735421	24.020134491286566	0	0
50.116796352871212	29.34740946942139	0	0
51.496991455303316	26.683771980353978	0	0
51.842040230911344	26.017862608087125	0	0
51.151942679695289	27.349681352620831	0	0
52.039821842717757	27.809746386764864	0	0
52.729919393933812	26.477927642231158	0	0
33.618433342929656	31.397434975666791	0	0
35.666092145690534	29.204928453301815	0	0
31.570774540168777	33.58994149803177	0	0
44.436118235150445	37.395563664345318	0	0
40.340800629628689	41.780576709075277	0	0
42.388459432389567	39.588070186710297	0	0
42.900374133079787	39.039943556119056	0	0
41.876544731699347	40.136196817301538	0	0
42.607380239154338	40.818749751555167	0	0
43.631209640534777	39.722496490372684	0	0
23.900861153157127	39.303136578747797	0	0
26.464109190901549	37.744384764411464	0	0
21.337613115412704	40.861888393084129	0	0
32.699116448246883	47.997376915389147	0	0
27.572620372758042	51.114880544061812	0	0
30.135868410502464	49.556128729725479	0	0
30.776680419938568	49.166440776141393	0	0
29.495056401066361	49.945816683309566	0	0
30.01464033917847	50.80023269589104	0	0
31.296264358050678	50.020856788722867	0	0
12.410651472149743	44.292893015339125	0	0
15.299318407932729	43.483502701938058	0	0
9.521984536366757	45.102283328740192	0	0
18.536879661537011	55.038170445070001	0	0
12.759545789971037	56.656951071872136	0	0
15.648212725754023	55.847560758471069	0	0
16.37037945969977	55.645213180120798	0	0
14.926045991808277	56.049908336821339	0	0
15.195842762941966	57.012797315415668	0	0
16.640176230833461	56.608102158715127	0	0
15.333333333333332	0	0	0
-15.333333333333332	0	0	0
[NumSegments] = 494
7	5	-1	0	0	0
5	6	-1	0	0	0
3	1	-1	0	0	0
4	2	-1	0	0	0
8	0	-1	0	0	0
7	4	-1	0	0	0
3	6	-1	0	0	0
2	0	-1	0	0	0
8	1	-1	0	0	0
0	9	-1	0	0	0
8	10	-1	0	0	0
18	16	-1	0	0	0
16	17	-1	0	0	0
14	12	-1	0	0	0
15	13	-1	0	0	0
19	11	-1	0	0	0
18	15	-1	0	0	0
14	17	-1	0	0	0
13	11	-1	0	0	0
19	12	-1	0	0	0
11	20	-1	0	0	0
19	21	-1	0	0	0
29	27	-1	0	0	0
27	28	-1	0	0	0
25	23	-1	0	0	0
26	24	-1	0	0	0
30	22	-1	0	0	0
29	26	-1	0	0	0
25	28	-1	0	0	0
24	22	-1	0	0	0
30	23	-1	0	0	0
22	31	-1	0	0	0
30	32	-1	0	0	0
40	38	-1	0	0	0
38	39	-1	0	0	0
36	34	-1	0	0	0
37	35	-1	0	0	0
41	33	-1	0	0	0
40	37	-1	0	0	0
36	39	-1	0	0	0
35	33	-1	0	0	0
41	34	-1	0	0	0
33	42	-1	0	0	0
41	43	-1	0	0	0
51	49	-1	0	0	0
49	50	-1	0	0	0
47	45	-1	0	0	0
48	46	-1	0	0	0
52	44	-1	0	0	0
51	48	-1	0	0	0
47	50	-1	0	0	0
46	44	-1	0	0	0
52	45	-1	0	0	0
44	53	-1	0	0	0
52	54	-1	0	0	0
62	60	-1	0	0	0
60	61	-1	0	0	0
58	56	-1	0	0	0
59	57	-1	0	0	0
63	55	-1	0	0	0
62	59	-1	0	0	0
58	61	-1	0	0	0
57	55	-1	0	0	0
63	56	-1	0	0	0
55	64	-1	0	0	0
63	65	-1	0	0	0
73	71	-1	0	0	0
71	72	-1	0	0	0
69	67	-1	0	0	0
70	68	-1	0	0	0
74	66	-1	0	0	0
73	70	-1	0	0	0
69	72	-1	0	0	0
68	66	-1	0	0	0
74	67	-1	0	0	0
66	75	-1	0	0	0
74	76	-1	0	0	0
84	82	-1	0	0	0
82	83	-1	0	0	0
80	78	-1	0	0	0
81	79	-1	0	0	0
85	77	-1	0	0	0
84	81	-1	0	0	0
80	83	-1	0	0	0
79	77	-1	0	0	0
85	78	-1	0	0	0
77	86	-1	0	0	0
85	87	-1	0	0	0
95	93	-1	0	0	0
93	94	-1	0	0	0
91	89	-1	0	0	0
92	90	-1	0	0	0
96	88	-1	0	0	0
95	92	-1	0	0	0
91	94	-1	0	0	0
90	88	-1	0	0	0
96	89	-1	0	0	0
88	97	-1	0	0	0
96	98	-1	0	0	0
106	104	-1	0	0	0
104	105	-1	0	0	0
102	100	-1	0	0	0
103	101	-1	0	0	0
107	99	-1	0	0	0
106	103	-1	0	0	0
102	105	-1	0	0	0
101	99	-1	0	0	0
107	100	-1	0	0	0
99	108	-1	0	0	0
107	109	-1	0	0	0
117	115	-1	0	0	0
115	116	-1	0	0	0
113	111	-1	0	0	0
114	112	-1	0	0	0
118	110	-1	0	0	0
117	114	-1	0	0	0
113	116	-1	0	0	0
112	110	-1	0	0	0
118	111	-1	0	0	0
110	119	-1	0	0	0
118	120	-1	0	0	0
128	126	-1	0	0	0
126	127	-1	0	0	0
124	122	-1	0	0	0
125	123	-1	0	0	0
129	121	-1	0	0	0
128	125	-1	0	0	0
124	127	-1	0	0	0
123	121	-1	0	0	0
129	122	-1	0	0	0
121	130	-1	0	0	0
129	131	-1	0	0	0
139	137	-1	0	0	0
137	138	-1	0	0	0
135	133	-1	0	0	0
136	134	-1	0	0	0
140	132	-1	0	0	0
139	136	-1	0	0	0
135	138	-1	0	0	0
134	132	-1	0	0	0
140	133	-1	0	0	0
132	141	-1	0	0	0
140	142	-1	0	0	0
150	148	-1	0	0	0
148	149	-1	0	0	0
146	144	-1	0	0	0
147	145	-1	0	0	0
151	143	-1	0	0	0
150	147	-1	0	0	0
146	149	-1	0	0	0
145	143	-1	0	0	0
151	144	-1	0	0	0
143	152	-1	0	0	0
151	153	-1	0	0	0
161	159	-1	0	0	0
159	160	-1	0	0	0
157	155	-1	0	0	0
158	156	-1	0	0	0
162	154	-1	0	0	0
161	158	-1	0	0	0
157	160	-1	0	0	0
156	154	-1	0	0	0
162	155	-1	0	0	0
154	163	-1	0	0	0
162	164	-1	0	0	0
172	170	-1	0	0	0
170	171	-1	0	0	0
168	166	-1	0	0	0
169	167	-1	0	0	0
173	165	-1	0	0	0
172	169	-1	0	0	0
168	171	-1	0	0	0
167	165	-1	0	0	0
173	166	-1	0	0	0
165	174	-1	0	0	0
173	175	-1	0	0	0
183	181	-1	0	0	0
181	182	-1	0	0	0
179	177	-1	0	0	0
180	178	-1	0	0	0
184	176	-1	0	0	0
183	180	-1	0	0	0
179	182	-1	0	0	0
178	176	-1	0	0	0
184	177	-1	0	0	0
176	185	-1	0	0	0
184	186	-1	0	0	0
194	192	-1	0	0	0
192	193	-1	0	0	0
190	188	-1	0	0	0
191	189	-1	0	0	0
195	187	-1	0	0	0
194	191	-1	0	0	0
190	193	-1	0	0	0
189	187	-1	0	0	0
195	188	-1	0	0	0
187	196	-1	0	0	0
195	197	-1	0	0	0
205	203	-1	0	0	0
203	204	-1	0	0	0
201	199	-1	0	0	0
202	200	-1	0	0	0
206	198	-1	0	0	0
205	202	-1	0	0	0
201	204	-1	0	0	0
200	198	-1	0	0	0
206	199	-1	0	0	0
198	207	-1	0	0	0
206	208	-1	0	0	0
216	214	-1	0	0	0
214	215	-1	0	0	0
212	210	-1	0	0	0
213	211	-1	0	0	0
217	209	-1	0	0	0
216	213	-1	0	0	0
212	215	-1	0	0	0
211	209	-1	0	0	0
217	210	-1	0	0	0
209	218	-1	0	0	0
217	219	-1	0	0	0
227	225	-1	0	0	0
225	226	-1	0	0	0
223	221	-1	0	0	0
224	222	-1	0	0	0
228	220	-1	0	0	0
227	224	-1	0	0	0
223	226	-1	0	0	0
222	220	-1	0	0	0
228	221	-1	0	0	0
220	229	-1	0	0	0
228	230	-1	0	0	0
238	236	-1	0	0	0
236	237	-1	0	0	0
234	232	-1	0	0	0
235	233	-1	0	0	0
239	231	-1	0	0	0
238	235	-1	0	0	0
234	237	-1	0	0	0
233	231	-1	0	0	0
239	232	-1	0	0	0
231	240	-1	0	0	0
239	241	-1	0	0	0
249	247	-1	0	0	0
247	248	-1	0	0	0
245	243	-1	0	0	0
246	244	-1	0	0	0
250	242	-1	0	0	0
249	246	-1	0	0	0
245	248	-1	0	0	0
244	242	-1	0	0	0
250	243	-1	0	0	0
242	251	-1	0	0	0
250	252	-1	0	0	0
260	258	-1	0	0	0
258	259	-1	0	0	0
256	254	-1	0	0	0
257	255	-1	0	0	0
261	253	-1	0	0	0
260	257	-1	0	0	0
256	259	-1	0	0	0
255	253	-1	0	0	0
261	254	-1	0	0	0
253	262	-1	0	0	0
261	263	-1	0	0	0
273	271	-1	0	0	0
271	272	-1	0	0	0
269	267	-1	0	0	0
270	268	-1	0	0	0
273	270	-1	0	0	0
269	272	-1	0	0	0
268	266	-1	0	0	0
266	267	-1	0	0	0
273	274	-1	0	0	0
272	275	-1	0	0	0