[Format]      =  4.0
[Frequency]   =  50
[Precision]   =  1e-008
[MinAngle]    =  30
[DoSmartMesh] =  1
[Depth]       =  1
[LengthUnits] =  centimeters
[ProblemType] =  planar
[Coordinates] =  cartesian
[ACSolver]    =  0
[PrevType]    =  0
[PrevSoln]    =  ""
[Comment]     =  "Add comments here."
[PointProps]   = 0
[BdryProps]   = 1
  <BeginBdry>
    <BdryName> = "New Boundary"
    <BdryType> = 0
    <A_0> = 0
    <A_1> = 0
    <A_2> = 0
    <Phi> = 0
    <c0> = 0
    <c0i> = 0
    <c1> = 0
    <c1i> = 0
    <Mu_ssd> = 0
    <Sigma_ssd> = 0
    <innerangle> = 0
    <outerangle> = 0
  <EndBdry>
[BlockProps]  = 6
  <BeginBlock>
    <BlockName> = "M-19 Steel"
    <Mu_x> = 5000
    <Mu_y> = 5000
    <H_c> = 0
    <H_cAngle> = 0
    <J_re> = 0
    <J_im> = 0
    <Sigma> = 0
    <d_lam> = 0
    <Phi_h> = 0
    <Phi_hx> = 0
    <Phi_hy> = 0
    <LamType> = 0
    <LamFill> = 1
    <NStrands> = 0
    <WireD> = 0
    <BHPoints> = 0
  <EndBlock>
  <BeginBlock>
    <BlockName> = "Copper"
    <Mu_x> = 58
    <Mu_y> = 58
    <H_c> = 0
    <H_cAngle> = 0
    <J_re> = 0
    <J_im> = 0
    <Sigma> = 0
    <d_lam> = 0
    <Phi_h> = 0
    <Phi_hx> = 0
    <Phi_hy> = 0
    <LamType> = 0
    <LamFill> = 1
    <NStrands> = 0
    <WireD> = 0
    <BHPoints> = 0
  <EndBlock>
  <BeginBlock>
    <BlockName> = "Aluminum"
    <Mu_x> = 37
    <Mu_y> = 37
    <H_c> = 0
    <H_cAngle> = 0
    <J_re> = 0
    <J_im> = 0
    <Sigma> = 0
    <d_lam> = 0
    <Phi_h> = 0
    <Phi_hx> = 0
    <Phi_hy> = 0
    <LamType> = 0
    <LamFill> = 1
    <NStrands> = 0
    <WireD> = 0
    <BHPoints> = 0
  <EndBlock>
  <BeginBlock>
    <BlockName> = "Air"
    <Mu_x> = 1
    <Mu_y> = 1
    <H_c> = 1
    <H_cAngle> = 0
    <J_re> = 0
    <J_im> = 0
    <Sigma> = 0
    <d_lam> = 0
    <Phi_h> = 0
    <Phi_hx> = 0
    <Phi_hy> = 0
    <LamType> = 0
    <LamFill> = 1
    <NStrands> = 0
    <WireD> = 0
    <BHPoints> = 0
  <EndBlock>
  <BeginBlock>
    <BlockName> = "M-19 Steel"
    <Mu_x> = 5000
    <Mu_y> = 5000
    <H_c> = 0
    <H_cAngle> = 0
    <J_re> = 0
    <J_im> = 0
    <Sigma> = 0
    <d_lam> = 0
    <Phi_h> = 0
    <Phi_hx> = 0
    <Phi_hy> = 0
    <LamType> = 0
    <LamFill> = 1
    <NStrands> = 0
    <WireD> = 0
    <BHPoints> = 0
  <EndBlock>
  <BeginBlock>
    <BlockName> = "Air"
    <Mu_x> = 1
    <Mu_y> = 1
    <H_c> = 0
    <H_cAngle> = 0
    <J_re> = 0
    <J_im> = 0
    <Sigma> = 0
    <d_lam> = 0
    <Phi_h> = 0
    <Phi_hx> = 0
    <Phi_hy> = 0
    <LamType> = 0
    <LamFill> = 1
    <NStrands> = 0
    <WireD> = 0
    <BHPoints> = 0
  <EndBlock>
[CircuitProps]  = 6
  <BeginCircuit>
    <CircuitName> = "A"
    <TotalAmps_re> = 1
    <TotalAmps_im> = 0
    <CircuitType> = 1
  <EndCircuit>
  <BeginCircuit>
    <CircuitName> = "C"
    <TotalAmps_re> = 1
    <TotalAmps_im> = 0
    <CircuitType> = 1
  <EndCircuit>
  <BeginCircuit>
    <CircuitName> = "B"
    <TotalAmps_re> = 1
    <TotalAmps_im> = 0
    <CircuitType> = 1
  <EndCircuit>
  <BeginCircuit>
    <CircuitName> = "A1"
    <TotalAmps_re> = -1
    <TotalAmps_im> = -0
    <CircuitType> = 1
  <EndCircuit>
  <BeginCircuit>
    <CircuitName> = "C1"
    <TotalAmps_re> = -1
    <TotalAmps_im> = -0
    <CircuitType> = 1
  <EndCircuit>
  <BeginCircuit>
    <CircuitName> = "B1"
    <TotalAmps_re> = -1
    <TotalAmps_im> = -0
    <CircuitType> = 1
  <EndCircuit>
[NumPoints] = 404
-11.431902895515011	60.016905577435161	0	0
-4.4922925553275252	60.930588922975311	0	0
-6.1891330541877956	73.818436697609201	0	0
-13.128743394375281	72.904753352069065	0	0
-9.6589382242815383	73.361595024839133	0	0
-7.0565843467112312	73.704226279416687	0	0
-12.261292101851845	73.018963770261578	0	0
-11.30137670329499	59.025532671694094	0	0
-4.3617663631075043	59.939216017234244	0	0
-26.577226064701897	55.016533814719764	0	0
-20.110152609275517	57.695317836997162	0	0
-25.085037222076387	69.705597111360447	0	0
-31.552110677502768	67.026813089083049	0	0
-28.318573949789577	68.366205100221748	0	0
-25.893421404004684	69.370749108575765	0	0
-30.743726495574471	67.361661091867731	0	0
-26.194542632947982	54.092666178230282	0	0
-19.727469177521602	56.77145020050768	0	0
-39.911175811928402	46.263813007582186	0	0
-34.357711146655561	50.525142587173065	0	0
-42.271608937324345	60.838719822679771	0	0
-47.825073602597186	56.577390243088892	0	0
-45.048341269960765	58.708055032884332	0	0
-42.965792020483448	60.306053625230916	0	0
-47.130890519438083	57.110056440537747	0	0
-39.302414443415415	45.47046091254321	0	0
-33.748949778142574	49.731790492134088	0	0
-50.525142587173065	34.357711146655561	0	0
-46.263813007582186	39.911175811928402	0	0
-56.577390243088892	47.825073602597186	0	0
-60.838719822679771	42.271608937324345	0	0
-58.708055032884332	45.048341269960765	0	0
-57.110056440537747	47.130890519438083	0	0
-60.306053625230916	42.965792020483448	0	0
-49.731790492134088	33.748949778142574	0	0
-45.47046091254321	39.302414443415415	0	0
-57.695317836997162	20.110152609275517	0	0
-55.016533814719764	26.577226064701897	0	0
-67.026813089083049	31.552110677502768	0	0
-69.705597111360447	25.085037222076387	0	0
-68.366205100221748	28.318573949789577	0	0
-67.361661091867731	30.743726495574471	0	0
-69.370749108575765	25.893421404004684	0	0
-56.77145020050768	19.727469177521602	0	0
-54.092666178230282	26.194542632947982	0	0
-60.930588922975311	4.4922925553275252	0	0
-60.016905577435161	11.431902895515011	0	0
-72.904753352069065	13.128743394375281	0	0
-73.818436697609201	6.1891330541877956	0	0
-73.361595024839133	9.6589382242815383	0	0
-73.018963770261578	12.261292101851845	0	0
-73.704226279416687	7.0565843467112312	0	0
-59.939216017234244	4.3617663631075043	0	0
-59.025532671694094	11.30137670329499	0	0
-60.016905577435161	-11.431902895515011	0	0
-60.930588922975311	-4.4922925553275252	0	0
-73.818436697609201	-6.1891330541877956	0	0
-72.904753352069065	-13.128743394375281	0	0
-73.361595024839133	-9.6589382242815383	0	0
-73.704226279416687	-7.0565843467112312	0	0
-73.018963770261578	-12.261292101851845	0	0
-59.025532671694094	-11.30137670329499	0	0
-59.939216017234244	-4.3617663631075043	0	0
-55.016533814719764	-26.577226064701897	0	0
-57.695317836997162	-20.110152609275517	0	0
-69.705597111360447	-25.085037222076387	0	0
-67.026813089083049	-31.552110677502768	0	0
-68.366205100221748	-28.318573949789577	0	0
-69.370749108575765	-25.893421404004684	0	0
-67.361661091867731	-30.743726495574471	0	0
-54.092666178230282	-26.194542632947982	0	0
-56.77145020050768	-19.727469177521602	0	0
-46.263813007582186	-39.911175811928402	0	0
-50.525142587173065	-34.357711146655561	0	0
-60.838719822679771	-42.271608937324345	0	0
-56.577390243088892	-47.825073602597186	0	0
-58.708055032884332	-45.048341269960765	0	0
-60.306053625230916	-42.965792020483448	0	0
-57.110056440537747	-47.130890519438083	0	0
-45.47046091254321	-39.302414443415415	0	0
-49.731790492134088	-33.748949778142574	0	0
-34.357711146655561	-50.525142587173065	0	0
-39.911175811928402	-46.263813007582186	0	0
-47.825073602597186	-56.577390243088892	0	0
-42.271608937324345	-60.838719822679771	0	0
-45.048341269960765	-58.708055032884332	0	0
-47.130890519438083	-57.110056440537747	0	0
-42.965792020483448	-60.306053625230916	0	0
-33.748949778142574	-49.731790492134088	0	0
-39.302414443415415	-45.47046091254321	0	0
-20.110152609275517	-57.695317836997162	0	0
-26.577226064701897	-55.016533814719764	0	0
-31.552110677502768	-67.026813089083049	0	0
-25.085037222076387	-69.705597111360447	0	0
-28.318573949789577	-68.366205100221748	0	0
-30.743726495574471	-67.361661091867731	0	0
-25.893421404004684	-69.370749108575765	0	0
-19.727469177521602	-56.77145020050768	0	0
-26.194542632947982	-54.092666178230282	0	0
-4.4922925553275252	-60.930588922975311	0	0
-11.431902895515011	-60.016905577435161	0	0
-13.128743394375281	-72.904753352069065	0	0
-6.1891330541877956	-73.818436697609201	0	0
-9.6589382242815383	-73.361595024839133	0	0
-12.261292101851845	-73.018963770261578	0	0
-7.0565843467112312	-73.704226279416687	0	0
-4.3617663631075043	-59.939216017234244	0	0
-11.30137670329499	-59.025532671694094	0	0
11.431902895515011	-60.016905577435161	0	0
4.4922925553275252	-60.930588922975311	0	0
6.1891330541877956	-73.818436697609201	0	0
13.128743394375281	-72.904753352069065	0	0
9.6589382242815383	-73.361595024839133	0	0
7.0565843467112312	-73.704226279416687	0	0
12.261292101851845	-73.018963770261578	0	0
11.30137670329499	-59.025532671694094	0	0
4.3617663631075043	-59.939216017234244	0	0
26.577226064701897	-55.016533814719764	0	0
20.110152609275517	-57.695317836997162	0	0
25.085037222076387	-69.705597111360447	0	0
31.552110677502768	-67.026813089083049	0	0
28.318573949789577	-68.366205100221748	0	0
25.893421404004684	-69.370749108575765	0	0
30.743726495574471	-67.361661091867731	0	0
26.194542632947982	-54.092666178230282	0	0
19.727469177521602	-56.77145020050768	0	0
39.911175811928402	-46.263813007582186	0	0
34.357711146655561	-50.525142587173065	0	0
42.271608937324345	-60.838719822679771	0	0
47.825073602597186	-56.577390243088892	0	0
45.048341269960765	-58.708055032884332	0	0
42.965792020483448	-60.306053625230916	0	0
47.130890519438083	-57.110056440537747	0	0
39.302414443415415	-45.47046091254321	0	0
33.748949778142574	-49.731790492134088	0	0
50.525142587173065	-34.357711146655561	0	0
46.263813007582186	-39.911175811928402	0	0
56.577390243088892	-47.825073602597186	0	0
60.838719822679771	-42.271608937324345	0	0
58.708055032884332	-45.048341269960765	0	0
57.110056440537747	-47.130890519438083	0	0
60.306053625230916	-42.965792020483448	0	0
49.731790492134088	-33.748949778142574	0	0
45.47046091254321	-39.302414443415415	0	0
57.695317836997162	-20.110152609275517	0	0
55.016533814719764	-26.577226064701897	0	0
67.026813089083049	-31.552110677502768	0	0
69.705597111360447	-25.085037222076387	0	0
68.366205100221748	-28.318573949789577	0	0
67.361661091867731	-30.743726495574471	0	0
69.370749108575765	-25.893421404004684	0	0
56.77145020050768	-19.727469177521602	0	0
54.092666178230282	-26.194542632947982	0	0
60.930588922975311	-4.4922925553275252	0	0
60.016905577435161	-11.431902895515011	0	0
72.904753352069065	-13.128743394375281	0	0
73.818436697609201	-6.1891330541877956	0	0
73.361595024839133	-9.6589382242815383	0	0
73.018963770261578	-12.261292101851845	0	0
73.704226279416687	-7.0565843467112312	0	0
59.939216017234244	-4.3617663631075043	0	0
59.025532671694094	-11.30137670329499	0	0
60.016905577435161	11.431902895515011	0	0
60.930588922975311	4.4922925553275252	0	0
73.818436697609201	6.1891330541877956	0	0
72.904753352069065	13.128743394375281	0	0
73.361595024839133	9.6589382242815383	0	0
73.704226279416687	7.0565843467112312	0	0
73.018963770261578	12.261292101851845	0	0
59.025532671694094	11.30137670329499	0	0
59.939216017234244	4.3617663631075043	0	0
55.016533814719764	26.577226064701897	0	0
57.695317836997162	20.110152609275517	0	0
69.705597111360447	25.085037222076387	0	0
67.026813089083049	31.552110677502768	0	0
68.366205100221748	28.318573949789577	0	0
69.370749108575765	25.893421404004684	0	0
67.361661091867731	30.743726495574471	0	0
54.092666178230282	26.194542632947982	0	0
56.77145020050768	19.727469177521602	0	0
46.263813007582186	39.911175811928402	0	0
50.525142587173065	34.357711146655561	0	0
60.838719822679771	42.271608937324345	0	0
56.577390243088892	47.825073602597186	0	0
58.708055032884332	45.048341269960765	0	0
60.306053625230916	42.965792020483448	0	0
57.110056440537747	47.130890519438083	0	0
45.47046091254321	39.302414443415415	0	0
49.731790492134088	33.748949778142574	0	0
34.357711146655561	50.525142587173065	0	0
39.911175811928402	46.263813007582186	0	0
47.825073602597186	56.577390243088892	0	0
42.271608937324345	60.838719822679771	0	0
45.048341269960765	58.708055032884332	0	0
47.130890519438083	57.110056440537747	0	0
42.965792020483448	60.306053625230916	0	0
33.748949778142574	49.731790492134088	0	0
39.302414443415415	45.47046091254321	0	0
20.110152609275517	57.695317836997162	0	0
26.577226064701897	55.016533814719764	0	0
31.552110677502768	67.026813089083049	0	0
25.085037222076387	69.705597111360447	0	0
28.318573949789577	68.366205100221748	0	0
30.743726495574471	67.361661091867731	0	0
25.893421404004684	69.370749108575765	0	0
19.727469177521602	56.77145020050768	0	0
26.194542632947982	54.092666178230282	0	0
4.4922925553275252	60.930588922975311	0	0
11.431902895515011	60.016905577435161	0	0
13.128743394375281	72.904753352069065	0	0
6.1891330541877956	73.818436697609201	0	0
9.6589382242815383	73.361595024839133	0	0
12.261292101851845	73.018963770261578	0	0
7.0565843467112312	73.704226279416687	0	0
4.3617663631075043	59.939216017234244	0	0
11.30137670329499	59.025532671694094	0	0
84	0	0	0
-84	0	0	0
0	45.992782664376946	0	0
2.9995293041984965	45.992782664376946	0	0
-2.9995293041984965	45.992782664376946	0	0
2.9995293041984965	57.990899881170932	0	0
-2.9995293041984965	57.990899881170932	0	0
0	57.990899881170932	0	0
-2.9995293041984965	58.990742982570431	0	0
2.9995293041984965	58.990742982570431	0	0
-12.410651472149725	44.292893015339125	0	0
-9.5219845363667392	45.102283328740192	0	0
-15.299318407932711	43.483502701938058	0	0
-12.759545789971014	56.656951071872136	0	0
-18.536879661536986	55.038170445070001	0	0
-15.648212725754	55.847560758471069	0	0
-18.806676432670674	56.00105942366433	0	0
-13.029342561104704	57.619840050466465	0	0
-23.900861153157138	39.30313657874779	0	0
-21.337613115412715	40.861888393084122	0	0
-26.46410919090156	37.744384764411457	0	0
-27.572620372758056	51.114880544061805	0	0
-32.699116448246897	47.99737691538914	0	0
-30.135868410502479	49.556128729725472	0	0
-33.218700386359011	48.851792927970614	0	0
-28.092204310870169	51.969296556643279	0	0
-33.618433342929656	31.397434975666791	0	0
-31.570774540168777	33.58994149803177	0	0
-35.666092145690534	29.204928453301815	0	0
-40.340800629628689	41.780576709075277	0	0
-44.436118235150445	37.395563664345318	0	0
-42.388459432389567	39.588070186710297	0	0
-45.166953742605436	38.078116598598946	0	0
-41.071636137083679	42.463129643328905	0	0
-40.842441499033654	21.162991570625586	0	0
-39.46224639660155	23.826629059692998	0	0
-42.222636601465759	18.499354081558174	0	0
-50.116796352871198	29.347409469421407	0	0
-52.877186557735406	24.020134491286584	0	0
-51.496991455303302	26.683771980353995	0	0
-53.765065720757875	24.480199525430617	0	0
-51.004675515893666	29.807474503565441	0	0
-45.035805254422904	9.3589766003405543	0	0
-44.425437215270257	12.296094334324657	0	0
-45.646173293575551	6.4218588663564518	0	0
-56.173908151206668	14.737566490935237	0	0
-57.394644229511961	8.8633310229670315	0	0
-56.784276190359314	11.800448756951134	0	0
-58.373683474173326	9.0667870360179137	0	0
-57.152947395868033	14.941022503986119	0	0
-45.887916618653456	-3.139151014774872	0	0
-46.092643858747472	-0.14646080051486399	0	0
-45.68318937855944	-6.1318412290348796	0	0
-58.063404715787506	-0.96536976089091731	0	0
-57.653950235599474	-6.9507501894109334	0	0
-57.85867747569349	-3.9580599751509253	0	0
-58.65151364035281	-7.0189926027756044	0	0
-59.060968120540842	-1.0336121742555884	0	0
-43.343200691377035	-15.404462151870886	0	0
-44.347839527368613	-12.577731671998471	0	0
-42.338561855385457	-18.231192631743301	0	0
-55.654761446858274	-16.596287015964787	0	0
-53.645483774875117	-22.249747975709621	0	0
-54.650122610866696	-19.423017495837204	0	0
-54.587727268165921	-22.584627587706812	0	0
-56.597004940149077	-16.931166627961979	0	0
-37.580531118511352	-26.527293235252259	0	0
-39.310571981679978	-24.076389031871084	0	0
-35.850490255342727	-28.978197438633433	0	0
-49.114188795204676	-30.996552484545585	0	0
-45.654107068867425	-35.898360891307938	0	0
-47.384147932036051	-33.44745668792676	0	0
-46.471075136661149	-36.475041179030811	0	0
-49.9311568629984	-31.573232772268462	0	0
-29.030041358781556	-35.682676229859418	0	0
-31.357172417250649	-33.789412662982357	0	0
-26.702910300312464	-37.575939796736478	0	0
-38.930226684758885	-43.097936896858727	0	0
-34.275964567820701	-46.884464030612847	0	0
-36.603095626289793	-44.991200463735787	0	0
-34.907052423446387	-47.66017438343588	0	0
-39.561314540384572	-43.87364724968176	0	0
-18.326450091696355	-42.191239854198543	0	0
-21.078052690883215	-40.996036587348783	0	0
-15.574847492509493	-43.386443121048302	0	0
-25.858865758282263	-52.002446984096231	0	0
-20.355660559908543	-54.39285351779575	0	0
-23.107263159095403	-53.197650250945991	0	0
-20.754061648858464	-55.310054384191368	0	0
-26.257266847232184	-52.919647850491849	0	0
-6.2636658584252674	-45.568358988281091	0	0
-9.2355153576609901	-45.159859040992487	0	0
-3.2918163591895437	-45.976858935569695	0	0
-10.869515146815409	-57.047257037935381	0	0
-4.9258161483439613	-57.864256932512589	0	0
-7.8976656475796849	-57.455756985223985	0	0
-5.0619827974401623	-58.854873432257833	0	0
-11.005681795911611	-58.037873537680625	0	0
6.2636658584252674	-45.568358988281091	0	0
3.2918163591895437	-45.976858935569695	0	0
9.2355153576609901	-45.159859040992487	0	0
4.9258161483439613	-57.864256932512589	0	0
10.869515146815409	-57.047257037935381	0	0
7.8976656475796849	-57.455756985223985	0	0
11.005681795911611	-58.037873537680625	0	0
5.0619827974401623	-58.854873432257833	0	0
18.326450091696355	-42.19123985419855	0	0
15.574847492509493	-43.386443121048309	0	0
21.078052690883219	-40.99603658734879	0	0
20.355660559908543	-54.392853517795757	0	0
25.858865758282263	-52.002446984096238	0	0
23.107263159095403	-53.197650250945998	0	0
26.257266847232184	-52.919647850491856	0	0
20.754061648858464	-55.310054384191375	0	0
29.030041358781556	-35.682676229859418	0	0
26.702910300312464	-37.575939796736478	0	0
31.357172417250649	-33.789412662982357	0	0
34.275964567820701	-46.884464030612847	0	0
38.930226684758885	-43.097936896858727	0	0
36.603095626289793	-44.991200463735787	0	0
39.561314540384572	-43.87364724968176	0	0
34.907052423446387	-47.66017438343588	0	0
37.580531118511367	-26.527293235252259	0	0
35.850490255342741	-28.978197438633433	0	0
39.310571981679992	-24.076389031871084	0	0
45.654107068867447	-35.898360891307938	0	0
49.114188795204697	-30.996552484545585	0	0
47.384147932036072	-33.44745668792676	0	0
49.931156862998421	-31.573232772268462	0	0
46.47107513666117	-36.475041179030811	0	0
43.343200691377035	-15.404462151870867	0	0
42.338561855385457	-18.231192631743284	0	0
44.347839527368613	-12.577731671998452	0	0
53.645483774875117	-22.249747975709596	0	0
55.654761446858274	-16.596287015964762	0	0
54.650122610866696	-19.423017495837179	0	0
56.597004940149077	-16.931166627961954	0	0
54.587727268165921	-22.584627587706787	0	0
45.887916618653456	-3.139151014774872	0	0
45.68318937855944	-6.1318412290348796	0	0
46.092643858747472	-0.14646080051486399	0	0
57.653950235599474	-6.9507501894109334	0	0
58.063404715787506	-0.96536976089091731	0	0
57.85867747569349	-3.9580599751509253	0	0
59.060968120540842	-1.0336121742555884	0	0
58.65151364035281	-7.0189926027756044	0	0
45.035805254422897	9.3589766003405632	0	0
45.646173293575544	6.4218588663564606	0	0
44.42543721527025	12.296094334324666	0	0
57.394644229511954	8.8633310229670421	0	0
56.17390815120666	14.737566490935247	0	0
56.784276190359307	11.800448756951145	0	0
57.152947395868026	14.94102250398613	0	0
58.373683474173319	9.0667870360179244	0	0
40.842441499033662	21.162991570625568	0	0
42.222636601465766	18.499354081558156	0	0
39.462246396601557	23.82662905969298	0	0
52.877186557735421	24.020134491286566	0	0
50.116796352871212	29.34740946942139	0	0
51.496991455303316	26.683771980353978	0	0
51.00467551589368	29.807474503565423	0	0
53.765065720757889	24.480199525430599	0	0
33.618433342929656	31.397434975666791	0	0
35.666092145690534	29.204928453301815	0	0
31.570774540168777	33.58994149803177	0	0
44.436118235150445	37.395563664345318	0	0
40.340800629628689	41.780576709075277	0	0
42.388459432389567	39.588070186710297	0	0
41.071636137083679	42.463129643328905	0	0
45.166953742605436	38.078116598598946	0	0
23.900861153157127	39.303136578747797	0	0
26.464109190901549	37.744384764411464	0	0
21.337613115412704	40.861888393084129	0	0
32.699116448246883	47.997376915389147	0	0
27.572620372758042	51.114880544061812	0	0
30.135868410502464	49.556128729725479	0	0
28.092204310870152	51.969296556643286	0	0
33.218700386358996	48.851792927970621	0	0
12.410651472149743	44.292893015339125	0	0
15.299318407932729	43.483502701938058	0	0
9.521984536366757	45.102283328740192	0	0
18.536879661537011	55.038170445070001	0	0
12.759545789971037	56.656951071872136	0	0
15.648212725754023	55.847560758471069	0	0
13.029342561104727	57.619840050466465	0	0
18.806676432670702	56.00105942366433	0	0
15.333333333333332	0	0	0
-15.333333333333332	0	0	0
[NumSegments] = 400
6	4	-1	0	0	0
4	5	-1	0	0	0
2	1	-1	0	0	0
3	0	-1	0	0	0
1	0	-1	0	0	0
6	3	-1	0	0	0
2	5	-1	0	0	0
0	7	-1	0	0	0
1	8	-1	0	0	0
15	13	-1	0	0	0
13	14	-1	0	0	0
11	10	-1	0	0	0
12	9	-1	0	0	0
10	9	-1	0	0	0
15	12	-1	0	0	0
11	14	-1	0	0	0
9	16	-1	0	0	0
10	17	-1	0	0	0
24	22	-1	0	0	0
22	23	-1	0	0	0
20	19	-1	0	0	0
21	18	-1	0	0	0
19	18	-1	0	0	0
24	21	-1	0	0	0
20	23	-1	0	0	0
18	25	-1	0	0	0
19	26	-1	0	0	0
33	31	-1	0	0	0
31	32	-1	0	0	0
29	28	-1	0	0	0
30	27	-1	0	0	0
28	27	-1	0	0	0
33	30	-1	0	0	0
29	32	-1	0	0	0
27	34	-1	0	0	0
28	35	-1	0	0	0
42	40	-1	0	0	0
40	41	-1	0	0	0
38	37	-1	0	0	0
39	36	-1	0	0	0
37	36	-1	0	0	0
42	39	-1	0	0	0
38	41	-1	0	0	0
36	43	-1	0	0	0
37	44	-1	0	0	0
51	49	-1	0	0	0
49	50	-1	0	0	0
47	46	-1	0	0	0
48	45	-1	0	0	0
46	45	-1	0	0	0
51	48	-1	0	0	0
47	50	-1	0	0	0
45	52	-1	0	0	0
46	53	-1	0	0	0
60	58	-1	0	0	0
58	59	-1	0	0	0
56	55	-1	0	0	0
57	54	-1	0	0	0
55	54	-1	0	0	0
60	57	-1	0	0	0
56	59	-1	0	0	0
54	61	-1	0	0	0
55	62	-1	0	0	0
69	67	-1	0	0	0
67	68	-1	0	0	0
65	64	-1	0	0	0
66	63	-1	0	0	0
64	63	-1	0	0	0
69	66	-1	0	0	0
65	68	-1	0	0	0
63	70	-1	0	0	0
64	71	-1	0	0	0
78	76	-1	0	0	0
76	77	-1	0	0	0
74	73	-1	0	0	0
75	72	-1	0	0	0
73	72	-1	0	0	0
78	75	-1	0	0	0
74	77	-1	0	0	0
72	79	-1	0	0	0
73	80	-1	0	0	0
87	85	-1	0	0	0
85	86	-1	0	0	0
83	82	-1	0	0	0
84	81	-1	0	0	0
82	81	-1	0	0	0
87	84	-1	0	0	0
83	86	-1	0	0	0
81	88	-1	0	0	0
82	89	-1	0	0	0
96	94	-1	0	0	0
94	95	-1	0	0	0
92	91	-1	0	0	0
93	90	-1	0	0	0
91	90	-1	0	0	0
96	93	-1	0	0	0
92	95	-1	0	0	0
90	97	-1	0	0	0
91	98	-1	0	0	0
105	103	-1	0	0	0
103	104	-1	0	0	0
101	100	-1	0	0	0
102	99	-1	0	0	0
100	99	-1	0	0	0
105	102	-1	0	0	0
101	104	-1	0	0	0
99	106	-1	0	0	0
100	107	-1	0	0	0
114	112	-1	0	0	0
112	113	-1	0	0	0
110	109	-1	0	0	0
111	108	-1	0	0	0
109	108	-1	0	0	0
114	111	-1	0	0	0
110	113	-1	0	0	0
108	115	-1	0	0	0
109	116	-1	0	0	0
123	121	-1	0	0	0
121	122	-1	0	0	0
119	118	-1	0	0	0
120	117	-1	0	0	0
118	117	-1	0	0	0
123	120	-1	0	0	0
119	122	-1	0	0	0
117	124	-1	0	0	0
118	125	-1	0	0	0
132	130	-1	0	0	0
130	131	-1	0	0	0
128	127	-1	0	0	0
129	126	-1	0	0	0
127	126	-1	0	0	0
132	129	-1	0	0	0
128	131	-1	0	0	0
126	133	-1	0	0	0
127	134	-1	0	0	0
141	139	-1	0	0	0
139	140	-1	0	0	0
137	136	-1	0	0	0
138	135	-1	0	0	0
136	135	-1	0	0	0
141	138	-1	0	0	0
137	140	-1	0	0	0
135	142	-1	0	0	0
136	143	-1	0	0	0
150	148	-1	0	0	0
148	149	-1	0	0	0
146	145	-1	0	0	0
147	144	-1	0	0	0
145	144	-1	0	0	0
150	147	-1	0	0	0
146	149	-1	0	0	0
144	151	-1	0	0	0
145	152	-1	0	0	0
159	157	-1	0	0	0
157	158	-1	0	0	0
155	154	-1	0	0	0
156	153	-1	0	0	0
154	153	-1	0	0	0
159	156	-1	0	0	0
155	158	-1	0	0	0
153	160	-1	0	0	0
154	161	-1	0	0	0
168	166	-1	0	0	0
166	167	-1	0	0	0
164	163	-1	0	0	0
165	162	-1	0	0	0
163	162	-1	0	0	0
168	165	-1	0	0	0
164	167	-1	0	0	0
162	169	-1	0	0	0
163	170	-1	0	0	0
177	175	-1	0	0	0
175	176	-1	0	0	0
173	172	-1	0	0	0
174	171	-1	0	0	0
172	171	-1	0	0	0
177	174	-1	0	0	0
173	176	-1	0	0	0
171	178	-1	0	0	0
172	179	-1	0	0	0
186	184	-1	0	0	0
184	185	-1	0	0	0
182	181	-1	0	0	0
183	180	-1	0	0	0
181	180	-1	0	0	0
186	183	-1	0	0	0
182	185	-1	0	0	0
180	187	-1	0	0	0
181	188	-1	0	0	0
195	193	-1	0	0	0
193	194	-1	0	0	0
191	190	-1	0	0	0
192	189	-1	0	0	0
190	189	-1	0	0	0
195	192	-1	0	0	0
191	194	-1	0	0	0
189	196	-1	0	0	0
190	197	-1	0	0	0
204	202	-1	0	0	0
202	203	-1	0	0	0
200	199	-1	0	0	0
201	198	-1	0	0	0
199	198	-1	0	0	0
204	201	-1	0	0	0
200	203	-1	0	0	0
198	205	-1	0	0	0
199	206	-1	0	0	0
213	211	-1	0	0	0
211	212	-1	0	0	0
209	208	-1	0	0	0
210	207	-1	0	0	0
208	207	-1	0	0	0
213	210	-1	0	0	0
209	212	-1	0	0	0
207	214	-1	0	0	0
208	215	-1	0	0	0
222	223	-1	0	0	0
223	221	-1	0	0	0
221	219	-1	0	0	0
222	220	-1	0	0	0
220	218	-1	0	0	0
218	219	-1	0	0	0
222	224	-1	0	0	0
221	225	-1	0	0	0
230	231	-1	0	0	0
231	229	-1	0	0	0
229	227	-1	0	0	0
230	228	-1	0	0	0
228	226	-1	0	0	0
226	227	-1	0	0	0
230	232	-1	0	0	0
229	233	-1	0	0	0
238	239	-1	0	0	0
239	237	-1	0	0	0
237	235	-1	0	0	0
238	236	-1	0	0	0
236	234	-1	0	0	0
234	235	-1	0	0	0
238	240	-1	0	0	0
237	241	-1	0	0	0
246	247	-1	0	0	0
247	245	-1	0	0	0
245	243	-1	0	0	0
246	244	-1	0	0	0
244	242	-1	0	0	0
242	243	-1	0	0	0
246	248	-1	0	0	0
245	249	-1	0	0	0
254	255	-1	0	0	0
255	253	-1	0	0	0
253	251	-1	0	0	0
254	252	-1	0	0	0
252	250	-1	0	0	0
250	251	-1	0	0	0
254	256	-1	0	0	0
253	257	-1	0	0	0
262	263	-1	0	0	0
263	261	-1	0	0	0
261	259	-1	0	0	0
262	260	-1	0	0	0
260	258	-1	0	0	0
258	259	-1	0	0	0
262	264	-1	0	0	0
261	265	-1	0	0	0
270	271	-1	0	0	0
271	269	-1	0	0	0
269	267	-1	0	0	0
270	268	-1	0	0	0
268	266	-1	0	0	0
266	267	-1	0	0	0
270	272	-1	0	0	0
269	273	-1	0	0	0
278	279	-1	0	0	0
279	277	-1	0	0	0
277	275	-1	0	0	0
278	276	-1	0	0	0
276	274	-1	0	0	0
274	275	-1	0	0	0
278	280	-1	0	0	0
277	281	-1	0	0	0
286	287	-1	0	0	0
287	285	-1	0	0	0
285	283	-1	0	0	0
286	284	-1	0	0	0
284	282	-1	0	0	0
282	283	-1	0	0	0
286	288	-1	0	0	0
285	289	-1	0	0	0
294	295	-1	0	0	0
295	293	-1	0	0	0
293	291	-1	0	0	0
294	292	-1	0	0	0
292	290	-1	0	0	0
290	291	-1	0	0	0
294	296	-1	0	0	0
293	297	-1	0	0	0
302	303	-1	0	0	0
303	301	-1	0	0	0
301	299	-1	0	0	0
302	300	-1	0	0	0
300	298	-1	0	0	0
298	299	-1	0	0	0
302	304	-1	0	0	0
301	305	-1	0	0	0
310	311	-1	0	0	0
311	309	-1	0	0	0
309	307	-1	0	0	0
310	308	-1	0	0	0
308	306	-1	0	0	0
306	307	-1	0	0	0
310	312	-1	0	0	0
309	313	-1	0	0	0
318	319	-1	0	0	0
319	317	-1	0	0	0
317	315	-1	0	0	0
318	316	-1	0	0	0
316	314	-1	0	0	0
314	315	-1	0	0	0
318	320	-1	0	0	0
317	321	-1	0	0	0
326	327	-1	0	0	0
327	325	-1	0	0	0
325	323	-1	0	0	0
326	324	-1	0	0	0
324	322	-1	0	0	0
322	323	-1	0	0	0
326	328	-1	0	0	0
325	329	-1	0	0	0
334	335	-1	0	0	0
335	333	-1	0	0	0
333	331	-1	0	0	0
334	332	-1	0	0	0
332	330	-1	0	0	0
330	331	-1	0	0	0
334	336	-1	0	0	0
333	337	-1	0	0	0
342	343	-1	0	0	0
343	341	-1	0	0	0
341	339	-1	0	0	0
342	340	-1	0	0	0
340	338	-1	0	0	0
338	339	-1	0	0	0
342	344	-1	0	0	0
341	345	-1	0	0	0
350	351	-1	0	0	0
351	349	-1	0	0	0
349	347	-1	0	0	0
350	348	-1	0	0	0
348	346	-1	0	0	0
346	347	-1	0	0	0
350	352	-1	0	0	0
349	353	-1	0	0	0
358	359	-1	0	0	0
359	357	-1	0	0	0
357	355	-1	0	0	0
358	356	-1	0	0	0
356	354	-1	0	0	0
354	355	-1	0	0	0
358	360	-1	0	0	0
357	361	-1	0	0	0
366	367	-1	0	0	0
367	365	-1	0	0	0
365	363	-1	0	0	0
366	364	-1	0	0	0
364	362	-1	0	0	0
362	363	-1	0	0	0
366	368	-1	0	0	0
365	369	-1	0	0	0
374	375	-1	0	0	0
375	373	-1	0	0	0
373	371	-1	0	0	0
374	372	-1	0	0	0
372	370	-1	0	0	0
370	371	-1	0	0	0
374	376	-1	0	0	0
373	377	-1	0	0	0
382	383	-1	0	0	0
383	381	-1	0	0	0
381	379	-1	0	0	0
382	380	-1	0	0	0
380	378	-1	0	0	0
378	379	-1	0	0	0
382	384	-1	0	0	0
381	385	-1	0	0	0
390	391	-1	0	0	0
391	389	-1	0	0	0
389	387	-1	0	0	0
390	388	-1	0	0	0
388	386	-1	0	0	0
386	387	-1	0	0	0
390	392	-1	0	0	0
389	393	-1	0	0	0
398	399	-1	0	0	0
399	397	-1	0	0	0
397	395	-1	0	0	0
398	396	-1	0	0	0
396	394	-1	0	0	0
394	395	-1	0	0	0
398	400	-1	0	0	0
397	401	-1	0	0	0
[NumArcSegments] = 51
7	17	15	1	0	0	0	1
16	26	15	1	0	0	0	1
25	35	15	1	0	0	0	1
34	44	15	1	0	0	0	1
43	53	15	1	0	0	0	1
52	62	15	1	0	0	0	1
61	71	15	1	0	0	0	1
70	80	15	1	0	0	0	1
79	89	15	1	0	0	0	1
88	98	15	1	0	0	0	1
97	107	15	1	0	0	0	1
106	116	15	1	0	0	0	1
115	125	15	1	0	0	0	1
124	134	15	1	0	0	0	1
133	143	15	1	0	0	0	1
142	152	15	1	0	0	0	1
151	161	15	1	0	0	0	1
160	170	15	1	0	0	0	1
169	179	15	1	0	0	0	1
178	188	15	1	0	0	0	1
187	197	15	1	0	0	0	1
196	206	15	1	0	0	0	1
205	215	15	1	0	0	0	1
214	8	15	1	0	0	0	1
216	217	180	1	1	0	0	1
217	216	180	1	1	0	0	1
224	233	15.652173913043478	1	0	0	0	1
232	241	15.652173913043478	1	0	0	0	1
240	249	15.652173913043478	1	0	0	0	1
248	257	15.652173913043478	1	0	0	0	1
256	265	15.652173913043478	1	0	0	0	1
264	273	15.652173913043478	1	0	0	0	1
272	281	15.652173913043478	1	0	0	0	1
280	289	15.652173913043478	1	0	0	0	1
288	297	15.652173913043478	1	0	0	0	1
296	305	15.652173913043478	1	0	0	0	1
304	313	15.652173913043478	1	0	0	0	1
312	321	15.652173913043478	1	0	0	0	1
320	329	15.652173913043478	1	0	0	0	1
328	337	15.652173913043478	1	0	0	0	1
336	345	15.652173913043478	1	0	0	0	1
344	353	15.652173913043478	1	0	0	0	1
352	361	15.652173913043478	1	0	0	0	1
360	369	15.652173913043478	1	0	0	0	1
368	377	15.652173913043478	1	0	0	0	1
376	385	15.652173913043478	1	0	0	0	1
384	393	15.652173913043478	1	0	0	0	1
392	401	15.652173913043478	1	0	0	0	1
400	225	15.652173913043478	1	0	0	0	1
402	403	180	1	0	0	0	1
403	402	180	1	0	0	0	1
[NumHoles] = 0
[NumBlockLabels] = 51
83.200000000000003	0	5	-1	0	0	0	1	0
-8.810517974851404	66.917671137522191	2	1	6	120	0	2	0
-25.831131643389142	62.361065463040106	2	1	6	120	0	2	0
-41.091392374626373	53.551266415130975	2	1	6	120	0	2	0
-53.551266415130975	41.091392374626373	2	1	6	120	0	2	0
-62.361065463040106	25.831131643389142	2	1	2	-120	0	-2	0