[Format]      =  4.0
[Frequency]   =  0.25
[Precision]   =  1e-008
[MinAngle]    =  20
[DoSmartMesh] =  1
[Depth]       =  100
[LengthUnits] =  millimeters
[ProblemType] =  planar
[Coordinates] =  cartesian
[ACSolver]    =  0
[PrevType]    =  0
[PrevSoln]    =  ""
[Comment]     =  "Example Induction Motor\n50 Hz, 2 HP, 220 V"
[PointProps]   = 0
[BdryProps]   = 5
  <BeginBdry>
    <BdryName> = "A=0"
    <BdryType> = 0
    <A_0> = 0
    <A_1> = 0
    <A_2> = 0
    <Phi> = 0
    <c0> = 0
    <c0i> = 0
    <c1> = 0
    <c1i> = 0
    <Mu_ssd> = 0
    <Sigma_ssd> = 0
    <innerangle> = 0
    <outerangle> = 0
  <EndBdry>
  <BeginBdry>
    <BdryName> = "apbc1"
    <BdryType> = 5
    <A_0> = 0
    <A_1> = 0
    <A_2> = 0
    <Phi> = 0
    <c0> = 0
    <c0i> = 0
    <c1> = 0
    <c1i> = 0
    <Mu_ssd> = 0
    <Sigma_ssd> = 0
    <innerangle> = 0
    <outerangle> = 0
  <EndBdry>
  <BeginBdry>
    <BdryName> = "apbc2"
    <BdryType> = 5
    <A_0> = 0
    <A_1> = 0
    <A_2> = 0
    <Phi> = 0
    <c0> = 0
    <c0i> = 0
    <c1> = 0
    <c1i> = 0
    <Mu_ssd> = 0
    <Sigma_ssd> = 0
    <innerangle> = 0
    <outerangle> = 0
  <EndBdry>
  <BeginBdry>
    <BdryName> = "apbc3"
    <BdryType> = 5
    <A_0> = 0
    <A_1> = 0
    <A_2> = 0
    <Phi> = 0
    <c0> = 0
    <c0i> = 0
    <c1> = 0
    <c1i> = 0
    <Mu_ssd> = 0
    <Sigma_ssd> = 0
    <innerangle> = 0
    <outerangle> = 0
  <EndBdry>
  <BeginBdry>
    <BdryName> = "apbc4"
    <BdryType> = 5
    <A_0> = 0
    <A_1> = 0
    <A_2> = 0
    <Phi> = 0
    <c0> = 0
    <c0i> = 0
    <c1> = 0
    <c1i> = 0
    <Mu_ssd> = 0
    <Sigma_ssd> = 0
    <innerangle> = 0
    <outerangle> = 0
  <EndBdry>
[BlockProps]  = 4
  <BeginBlock>
    <BlockName> = "Silicon Core Iron"
    <Mu_x> = 7000
    <Mu_y> = 7000
    <H_c> = 0
    <H_cAngle> = 0
    <J_re> = 0
    <J_im> = 0
    <Sigma> = 0
    <d_lam> = 0
    <Phi_h> = 0
    <Phi_hx> = 0
    <Phi_hy> = 0
    <LamType> = 0
    <LamFill> = 1
    <NStrands> = 0
    <WireD> = 0
    <BHPoints> = 0
  <EndBlock>
  <BeginBlock>
    <BlockName> = "Aluminum"
    <Mu_x> = 1
    <Mu_y> = 1
    <H_c> = 0
    <H_cAngle> = 0
    <J_re> = 0
    <J_im> = 0
    <Sigma> = 34.450000000000003
    <d_lam> = 0
    <Phi_h> = 0
    <Phi_hx> = 0
    <Phi_hy> = 0
    <LamType> = 0
    <LamFill> = 1
    <NStrands> = 0
    <WireD> = 0
    <BHPoints> = 0
  <EndBlock>
  <BeginBlock>
    <BlockName> = "Air"
    <Mu_x> = 1
    <Mu_y> = 1
    <H_c> = 0
    <H_cAngle> = 0
    <J_re> = 0
    <J_im> = 0
    <Sigma> = 0
    <d_lam> = 0
    <Phi_h> = 0
    <Phi_hx> = 0
    <Phi_hy> = 0
    <LamType> = 0
    <LamFill> = 1
    <NStrands> = 0
    <WireD> = 0
    <BHPoints> = 0
  <EndBlock>
  <BeginBlock>
    <BlockName> = "Stator Winding"
    <Mu_x> = 1
    <Mu_y> = 1
    <H_c> = 0
    <H_cAngle> = 0
    <J_re> = 0
    <J_im> = 0
    <Sigma> = 0
    <d_lam> = 0
    <Phi_h> = 0
    <Phi_hx> = 0
    <Phi_hy> = 0
    <LamType> = 0
    <LamFill> = 1
    <NStrands> = 0
    <WireD> = 0
    <BHPoints> = 0
  <EndBlock>
[CircuitProps]  = 3
  <BeginCircuit>
    <CircuitName> = "A"
    <TotalAmps_re> = 1
    <TotalAmps_im> = 0
    <CircuitType> = 1
  <EndCircuit>
  <BeginCircuit>
    <CircuitName> = "B"
    <TotalAmps_re> = -0.5
    <TotalAmps_im> = 0.8660254037844386
    <CircuitType> = 1
  <EndCircuit>
  <BeginCircuit>
    <CircuitName> = "C"
    <TotalAmps_re> = -0.5
    <TotalAmps_im> = -0.86602540378443904
    <CircuitType> = 1
  <EndCircuit>
[NumPoints] = 665
64.999999999999986	0	0	2
12.5	0	0	1
39.5	0.50000000000000089	0	0
42.250000000000007	1.9000000000000004	0	0
53.000000000000007	1.8999999999999995	0	0
40.296178009193994	2.5216389216837634	0	0
40.931138364509231	2.5771907545622392	0	0
53.794513696954262	4.7064101083735412	0	0
53.92217954228289	2.8980257779750325	0	0
41.278196027198625	9.2077702371510028	0	0
51.864879372079862	11.074488147070504	0	0
40.121866523698671	4.5140283178672558	0	0
40.756826879013907	4.5695801507457308	0	0
41.938059102332964	5.4655007757046121	0	0
52.524742447214201	7.3322186856241141	0	0
39.2461105167299	9.4806874386102837	0	0
39.861777922954325	9.6456550229142834	0	0
52.599743577379314	12.217486467925504	0	0
52.159994619609684	13.97622843553612	0	0
53.60621736773362	6.5094899587674071	0	0
39.052174955885867	16.235767035002731	0	0
49.153870629334385	19.912483575753672	0	0
38.72847242652486	11.412539091188423	0	0
39.344139832749285	11.577506675492423	0	0
40.351851500523402	12.664935076016279	0	0
50.45354717397192	16.341651616767219	0	0
37.003569815705134	16.15167006517396	0	0
37.581237530243349	16.421040944332027	0	0
49.679091020631603	21.165725013894516	0	0
48.940620499979104	22.82138613399777	0	0
51.661457404520604	15.719218137073556	0	0
35.63957330989254	22.770448267190435	0	0
44.949346400575251	28.145448267190432	0	0
36.15833329222373	17.964285639247255	0	0
36.736001006761953	18.233656518405326	0	0
37.539573309892546	19.479551732809565	0	0
46.849346400575257	24.854551732809568	0	0
33.636694370539971	22.331892369946733	0	0
34.158810252199714	22.697481846103898	0	0
45.248964422055025	29.47085371568998	0	0
44.234210391605558	30.973127562956488	0	0
48.146990200030061	24.451325826592903	0	0
31.144081263372399	28.613260951182344	0	0
39.379059026901416	35.523227755312647	0	0
32.48954149783787	23.970196458524715	0	0
33.01165737949762	24.33578593468188	0	0
33.586674180181248	25.70229206733023	0	0
41.821651943710265	32.612258871460526	0	0
29.247784987914571	27.833571425541475	0	0
29.698484809835001	28.284271247461902	0	0
39.4439709365951	36.880525440305753	0	0
38.183766184073562	38.183766184073562	0	0
43.169601061864192	32.440492353839097	0	0
25.702292067330237	33.586674180181248	0	0
32.612258871460533	41.821651943710265	0	0
27.833571425541479	29.247784987914571	0	0
28.284271247461909	29.698484809835001	0	0
28.613260951182351	31.144081263372399	0	0
35.523227755312654	39.379059026901416	0	0
23.970196458524718	32.48954149783787	0	0
24.335785934681887	33.01165737949762	0	0
32.440492353839105	43.169601061864192	0	0
30.973127562956495	44.234210391605558	0	0
36.88052544030576	39.4439709365951	0	0
19.479551732809572	37.539573309892539	0	0
24.854551732809579	46.849346400575257	0	0
22.331892369946736	33.636694370539963	0	0
22.697481846103905	34.158810252199714	0	0
22.770448267190442	35.639573309892533	0	0
28.145448267190442	44.949346400575251	0	0
17.964285639247265	36.158333292223723	0	0
18.233656518405333	36.736001006761953	0	0
24.451325826592914	48.146990200030054	0	0
22.821386133997777	48.940620499979097	0	0
29.470853715689991	45.248964422055018	0	0
12.664935076016283	40.351851500523402	0	0
16.341651616767223	50.453547173971913	0	0
16.15167006517396	37.003569815705127	0	0
16.421040944332031	37.581237530243349	0	0
16.235767035002734	39.052174955885867	0	0
19.912483575753676	49.153870629334378	0	0
11.412539091188426	38.728472426524853	0	0
11.577506675492426	39.344139832749285	0	0
15.719218137073563	51.661457404520597	0	0
13.976228435536129	52.159994619609684	0	0
21.165725013894523	49.679091020631596	0	0
5.4655007757046157	41.938059102332964	0	0
7.3322186856241194	52.524742447214201	0	0
9.4806874386102873	39.2461105167299	0	0
9.645655022914287	39.861777922954325	0	0
9.2077702371510064	41.278196027198625	0	0
11.074488147070509	51.864879372079862	0	0
4.5140283178672593	40.121866523698671	0	0
4.5695801507457343	40.756826879013907	0	0
6.5094899587674124	53.60621736773362	0	0
4.7064101083735466	53.794513696954262	0	0
12.217486467925509	52.599743577379314	0	0
2.521638921683766	40.296178009193994	0	0
2.5771907545622419	40.931138364509231	0	0
1.900000000000003	42.250000000000007	0	0
1.9000000000000028	53.000000000000007	0	0
2.8980257779750356	53.92217954228289	0	0
38.620912998160193	8.3021129351835086	0	0
39.996874877920149	0.49999999999999956	0	0
39.105330185506482	8.4126779970777292	0	0
38.398392064203875	9.2770408473653312	0	0
38.882809251550164	9.3876059092595519	0	0
35.805212151704346	16.687923261192342	0	0
36.252880947953209	16.903509191097914	0	0
35.371328412586777	17.588892129094759	0	0
35.818997208835654	17.804478059000331	0	0
31.194088458416545	24.236931432185965	0	0
31.58256088082198	24.546727851368981	0	0
30.570598656557816	25.018762914653994	0	0
30.959071078963241	25.328559333837006	0	0
25.01876291465399	30.570598656557813	0	0
25.328559333837006	30.959071078963248	0	0
24.236931432185958	31.194088458416545	0	0
24.546727851368978	31.58256088082198	0	0
17.588892129094752	35.371328412586777	0	0
17.804478059000331	35.818997208835647	0	0
16.687923261192331	35.805212151704339	0	0
16.903509191097903	36.252880947953209	0	0
9.2770408473653241	38.398392064203883	0	0
9.387605909259543	38.882809251550171	0	0
8.3021129351835015	38.620912998160193	0	0
8.4126779970777221	39.105330185506482	0	0
0.49999999999999289	39.5	0	0
0.49999999999999201	39.996874877920149	0	0
0	65	0	0
39.500000000000014	0	0	0
40.375	0	0	0
0	39.500000000000007	0	0
0	12.5	0	0
0	40.375	0	0
37.017886023569325	6.3848347156391787	0	0
37.510529718423875	2.0125009921089108	0	0
24.993968283861083	5.0300645547891527	0	0
25.48661197871564	0.65773083125888521	0	0
23.248022653531173	10.465631500339654	0	0
34.669010950262418	14.462008149997175	0	0
24.701250526133904	6.3125448469828349	0	0
36.122238822865157	10.308921496640359	0	0
20.336324092064675	15.376407981791775	0	0
30.581686902726915	21.81399610762735	0	0
22.677265228732161	11.650821505187325	0	0
32.922628039394397	18.088409631022898	0	0
16.404877323527902	19.516147160748712	0	0
24.960869375885128	28.072139213105938	0	0
19.516147160748712	16.404877323527902	0	0
28.072139213105938	24.960869375885132	0	0
11.650821505187322	22.677265228732157	0	0
18.088409631022895	32.922628039394397	0	0
15.376407981791772	20.336324092064675	0	0
21.813996107627347	30.581686902726918	0	0
6.3125448469828314	24.701250526133904	0	0
10.30892149664035	36.122238822865157	0	0
10.465631500339647	23.248022653531173	0	0
14.462008149997168	34.669010950262425	0	0
0.65773083125888121	25.486611978715636	0	0
2.0125009921089045	37.510529718423882	0	0
5.0300645547891483	24.993968283861086	0	0
6.3848347156391716	37.017886023569318	0	0
25	0	0	0
0	25	0	0
24.37319780454559	5.5630233489078602	0	0
22.524221697560478	10.847093477938955	0	0
19.545787061700747	15.58724504646834	0	0
15.587245046468338	19.545787061700747	0	0
10.847093477938948	22.524221697560481	0	0
5.5630233489078558	24.37319780454559	0	0
-0.49999999999999845	39.5	0	0
-1.8999999999999977	42.250000000000007	0	0
-1.8999999999999961	53.000000000000007	0	0
-2.5216389216837607	40.296178009193994	0	0
-2.5771907545622366	40.931138364509231	0	0
-4.7064101083735377	53.794513696954262	0	0
-2.8980257779750294	53.92217954228289	0	0
-9.2077702371510011	41.278196027198625	0	0
-11.0744881470705	51.864879372079862	0	0
-4.5140283178672531	40.121866523698671	0	0
-4.5695801507457281	40.756826879013907	0	0
-5.4655007757046095	41.938059102332964	0	0
-7.3322186856241105	52.524742447214201	0	0
-9.480687438610282	39.2461105167299	0	0
-9.6456550229142817	39.861777922954325	0	0
-12.2174864679255	52.599743577379314	0	0
-13.976228435536116	52.159994619609684	0	0
-6.5094899587674036	53.60621736773362	0	0
-16.235767035002727	39.052174955885867	0	0
-19.912483575753669	49.153870629334385	0	0
-11.412539091188421	38.72847242652486	0	0
-11.577506675492421	39.344139832749285	0	0
-12.664935076016278	40.351851500523402	0	0
-16.341651616767216	50.45354717397192	0	0
-16.151670065173956	37.003569815705134	0	0
-16.421040944332024	37.581237530243349	0	0
-21.165725013894512	49.679091020631603	0	0
-22.821386133997766	48.940620499979104	0	0
-15.719218137073552	51.661457404520604	0	0
-22.770448267190432	35.63957330989254	0	0
-28.145448267190428	44.949346400575251	0	0
-17.964285639247251	36.15833329222373	0	0
-18.233656518405322	36.736001006761953	0	0
-19.479551732809561	37.539573309892546	0	0
-24.854551732809565	46.849346400575257	0	0
-22.331892369946729	33.636694370539971	0	0
-22.697481846103894	34.158810252199714	0	0
-29.470853715689977	45.248964422055025	0	0
-30.973127562956485	44.234210391605558	0	0
-24.4513258265929	48.146990200030061	0	0
-28.61326095118234	31.144081263372399	0	0
-35.523227755312647	39.379059026901416	0	0
-23.970196458524711	32.48954149783787	0	0
-24.335785934681876	33.01165737949762	0	0
-25.702292067330227	33.586674180181248	0	0
-32.612258871460526	41.821651943710265	0	0
-27.833571425541471	29.247784987914571	0	0
-28.284271247461898	29.698484809835001	0	0
-36.880525440305753	39.4439709365951	0	0
-38.183766184073562	38.183766184073562	0	0
-32.440492353839097	43.169601061864192	0	0
-33.586674180181248	25.702292067330241	0	0
-41.821651943710265	32.612258871460533	0	0
-29.247784987914571	27.833571425541482	0	0
-29.698484809835001	28.284271247461913	0	0
-31.144081263372399	28.613260951182355	0	0
-39.379059026901416	35.523227755312654	0	0
-32.48954149783787	23.970196458524722	0	0
-33.01165737949762	24.335785934681891	0	0
-43.169601061864192	32.440492353839105	0	0
-44.234210391605558	30.973127562956499	0	0
-39.4439709365951	36.88052544030576	0	0
-37.539573309892539	19.479551732809576	0	0
-46.849346400575257	24.854551732809583	0	0
-33.636694370539963	22.33189236994674	0	0
-34.158810252199714	22.697481846103909	0	0
-35.639573309892533	22.770448267190446	0	0
-44.949346400575251	28.145448267190446	0	0
-36.158333292223723	17.964285639247269	0	0
-36.736001006761953	18.233656518405336	0	0
-48.146990200030054	24.451325826592917	0	0
-48.940620499979097	22.82138613399778	0	0
-45.248964422055018	29.470853715689994	0	0
-40.351851500523402	12.664935076016285	0	0
-50.453547173971913	16.341651616767226	0	0
-37.003569815705127	16.151670065173963	0	0
-37.581237530243349	16.421040944332034	0	0
-39.052174955885867	16.235767035002738	0	0
-49.153870629334378	19.912483575753679	0	0
-38.728472426524853	11.412539091188428	0	0
-39.344139832749285	11.577506675492428	0	0
-51.661457404520597	15.719218137073566	0	0
-52.159994619609684	13.976228435536132	0	0
-49.679091020631596	21.165725013894527	0	0
-41.938059102332964	5.4655007757046183	0	0
-52.524742447214201	7.3322186856241229	0	0
-39.2461105167299	9.4806874386102891	0	0
-39.861777922954325	9.6456550229142888	0	0
-41.278196027198625	9.2077702371510082	0	0
-51.864879372079862	11.074488147070513	0	0
-40.121866523698671	4.514028317867262	0	0
-40.756826879013907	4.569580150745737	0	0
-53.60621736773362	6.509489958767416	0	0
-53.794513696954262	4.7064101083735501	0	0
-52.599743577379314	12.217486467925513	0	0
-40.296178009193994	2.5216389216837687	0	0
-40.931138364509231	2.5771907545622446	0	0
-42.250000000000007	1.9000000000000057	0	0
-53.000000000000007	1.9000000000000061	0	0
-53.92217954228289	2.8980257779750387	0	0
-8.3021129351835068	38.620912998160193	0	0
-0.49999999999999711	39.996874877920149	0	0
-8.4126779970777275	39.105330185506482	0	0
-9.2770408473653294	38.398392064203875	0	0
-9.3876059092595501	38.882809251550164	0	0
-16.687923261192338	35.805212151704346	0	0
-16.903509191097911	36.252880947953209	0	0
-17.588892129094756	35.371328412586777	0	0
-17.804478059000328	35.818997208835654	0	0
-24.236931432185962	31.194088458416545	0	0
-24.546727851368978	31.58256088082198	0	0
-25.01876291465399	30.570598656557816	0	0
-25.328559333837003	30.959071078963241	0	0
-30.570598656557813	25.018762914653994	0	0
-30.959071078963248	25.32855933383701	0	0
-31.194088458416545	24.236931432185962	0	0
-31.58256088082198	24.546727851368981	0	0
-35.371328412586777	17.588892129094756	0	0
-35.818997208835647	17.804478059000335	0	0
-35.805212151704339	16.687923261192335	0	0
-36.252880947953209	16.903509191097907	0	0
-38.398392064203883	9.2770408473653259	0	0
-38.882809251550171	9.3876059092595447	0	0
-38.620912998160193	8.3021129351835032	0	0
-39.105330185506482	8.4126779970777239	0	0
-39.5	0.49999999999999534	0	0
-39.996874877920149	0.49999999999999445	0	0
-65	3.9801020972288978e-015	0	0
-39.500000000000007	2.4186774283160231e-015	0	0
-12.5	7.6540424946709576e-016	0	0
-40.375	2.4722557257787194e-015	0	0
-6.384834715639176	37.017886023569325	0	0
-2.0125009921089085	37.510529718423875	0	0
-5.0300645547891509	24.993968283861083	0	0
-0.65773083125888365	25.48661197871564	0	0
-10.465631500339653	23.248022653531173	0	0
-14.462008149997173	34.669010950262418	0	0
-6.3125448469828331	24.701250526133904	0	0
-10.308921496640357	36.122238822865157	0	0
-15.376407981791774	20.336324092064675	0	0
-21.813996107627347	30.581686902726915	0	0
-11.650821505187324	22.677265228732161	0	0
-18.088409631022895	32.922628039394397	0	0
-19.516147160748712	16.404877323527902	0	0
-28.072139213105938	24.960869375885128	0	0
-16.404877323527902	19.516147160748712	0	0
-24.960869375885132	28.072139213105938	0	0
-22.677265228732157	11.650821505187324	0	0
-32.922628039394397	18.088409631022898	0	0
-20.336324092064675	15.376407981791774	0	0
-30.581686902726918	21.81399610762735	0	0
-24.701250526133904	6.3125448469828331	0	0
-36.122238822865157	10.308921496640352	0	0
-23.248022653531173	10.465631500339649	0	0
-34.669010950262425	14.462008149997169	0	0
-25.486611978715636	0.65773083125888276	0	0
-37.510529718423882	2.0125009921089068	0	0
-24.993968283861086	5.03006455478915	0	0
-37.017886023569318	6.3848347156391743	0	0
-25	1.5308084989341915e-015	0	0
-5.5630233489078584	24.37319780454559	0	0
-10.847093477938953	22.524221697560478	0	0
-15.587245046468338	19.545787061700747	0	0
-19.545787061700747	15.58724504646834	0	0
-22.524221697560481	10.84709347793895	0	0
-24.37319780454559	5.5630233489078575	0	0
-39.5	-0.49999999999999606	0	0
-42.250000000000007	-1.8999999999999952	0	0
-53.000000000000007	-1.899999999999993	0	0
-40.296178009193994	-2.5216389216837585	0	0
-40.931138364509231	-2.5771907545622343	0	0
-53.794513696954262	-4.706410108373535	0	0
-53.92217954228289	-2.8980257779750258	0	0
-41.278196027198625	-9.2077702371509975	0	0
-51.864879372079862	-11.074488147070497	0	0
-40.121866523698671	-4.5140283178672505	0	0
-40.756826879013907	-4.5695801507457254	0	0
-41.938059102332964	-5.4655007757046068	0	0
-52.524742447214201	-7.3322186856241078	0	0
-39.2461105167299	-9.4806874386102784	0	0
-39.861777922954325	-9.6456550229142781	0	0
-52.599743577379314	-12.217486467925497	0	0
-52.159994619609684	-13.976228435536113	0	0
-53.60621736773362	-6.5094899587674009	0	0
-39.052174955885867	-16.235767035002727	0	0
-49.153870629334385	-19.912483575753665	0	0
-38.72847242652486	-11.412539091188417	0	0
-39.344139832749285	-11.577506675492417	0	0
-40.351851500523402	-12.664935076016274	0	0
-50.45354717397192	-16.341651616767212	0	0
-37.003569815705134	-16.151670065173956	0	0
-37.581237530243349	-16.421040944332024	0	0
-49.679091020631603	-21.165725013894509	0	0
-48.940620499979104	-22.821386133997763	0	0
-51.661457404520604	-15.719218137073549	0	0
-35.63957330989254	-22.770448267190432	0	0
-44.949346400575251	-28.145448267190424	0	0
-36.15833329222373	-17.964285639247251	0	0
-36.736001006761953	-18.233656518405322	0	0
-37.539573309892546	-19.479551732809561	0	0
-46.849346400575257	-24.854551732809561	0	0
-33.636694370539971	-22.331892369946729	0	0
-34.158810252199714	-22.697481846103894	0	0
-45.248964422055032	-29.470853715689973	0	0
-44.234210391605565	-30.973127562956481	0	0
-48.146990200030061	-24.451325826592896	0	0
-31.144081263372403	-28.61326095118234	0	0
-39.379059026901423	-35.523227755312639	0	0
-32.48954149783787	-23.970196458524711	0	0
-33.01165737949762	-24.335785934681876	0	0
-33.586674180181248	-25.702292067330227	0	0
-41.821651943710272	-32.612258871460519	0	0
-29.247784987914574	-27.833571425541471	0	0
-29.698484809835005	-28.284271247461898	0	0
-39.443970936595107	-36.880525440305746	0	0
-38.183766184073569	-38.183766184073555	0	0
-43.169601061864199	-32.44049235383909	0	0
-25.702292067330241	-33.586674180181248	0	0
-32.61225887146054	-41.821651943710258	0	0
-27.833571425541482	-29.247784987914567	0	0
-28.284271247461913	-29.698484809834998	0	0
-28.613260951182355	-31.144081263372396	0	0
-35.523227755312661	-39.379059026901409	0	0
-23.970196458524722	-32.48954149783787	0	0
-24.335785934681891	-33.01165737949762	0	0
-32.440492353839112	-43.169601061864185	0	0
-30.973127562956503	-44.234210391605551	0	0
-36.880525440305767	-39.443970936595093	0	0
-19.479551732809576	-37.539573309892539	0	0
-24.854551732809586	-46.849346400575257	0	0
-22.33189236994674	-33.636694370539963	0	0
-22.697481846103909	-34.158810252199714	0	0
-22.770448267190446	-35.639573309892533	0	0
-28.145448267190449	-44.949346400575251	0	0
-17.964285639247269	-36.158333292223723	0	0
-18.233656518405336	-36.736001006761953	0	0
-24.451325826592921	-48.146990200030054	0	0
-22.821386133997784	-48.940620499979097	0	0
-29.470853715689998	-45.24896442205501	0	0
-12.664935076016288	-40.351851500523402	0	0
-16.34165161676723	-50.453547173971913	0	0
-16.151670065173963	-37.003569815705127	0	0
-16.421040944332034	-37.581237530243349	0	0
-16.235767035002738	-39.052174955885867	0	0
-19.912483575753683	-49.153870629334378	0	0
-11.412539091188432	-38.728472426524853	0	0
-11.577506675492431	-39.344139832749285	0	0
-15.71921813707357	-51.661457404520597	0	0
-13.976228435536136	-52.159994619609684	0	0
-21.16572501389453	-49.679091020631596	0	0
-5.465500775704621	-41.938059102332964	0	0
-7.3322186856241256	-52.524742447214201	0	0
-9.4806874386102926	-39.2461105167299	0	0
-9.6456550229142923	-39.861777922954325	0	0
-9.2077702371510117	-41.278196027198625	0	0
-11.074488147070516	-51.864879372079862	0	0
-4.5140283178672647	-40.121866523698671	0	0
-4.5695801507457396	-40.756826879013907	0	0
-6.5094899587674186	-53.60621736773362	0	0
-4.7064101083735528	-53.794513696954262	0	0
-12.217486467925516	-52.599743577379314	0	0
-2.5216389216837709	-40.296178009193994	0	0
-2.5771907545622468	-40.931138364509231	0	0
-1.9000000000000081	-42.250000000000007	0	0
-1.9000000000000092	-53.000000000000007	0	0
-2.8980257779750422	-53.92217954228289	0	0
-38.620912998160193	-8.3021129351835032	0	0
-39.996874877920149	-0.49999999999999467	0	0
-39.105330185506482	-8.4126779970777239	0	0
-38.398392064203875	-9.2770408473653259	0	0
-38.882809251550164	-9.3876059092595465	0	0
-35.805212151704346	-16.687923261192338	0	0
-36.252880947953209	-16.903509191097911	0	0
-35.371328412586777	-17.588892129094756	0	0
-35.818997208835654	-17.804478059000328	0	0
-31.194088458416548	-24.236931432185962	0	0
-31.582560880821983	-24.546727851368978	0	0
-30.57059865655782	-25.01876291465399	0	0
-30.959071078963245	-25.328559333837003	0	0
-25.018762914653994	-30.570598656557809	0	0
-25.32855933383701	-30.959071078963245	0	0
-24.236931432185962	-31.194088458416541	0	0
-24.546727851368981	-31.582560880821976	0	0
-17.588892129094756	-35.371328412586777	0	0
-17.804478059000335	-35.818997208835647	0	0
-16.687923261192335	-35.805212151704339	0	0
-16.903509191097907	-36.252880947953209	0	0
-9.2770408473653294	-38.398392064203883	0	0
-9.3876059092595483	-38.882809251550171	0	0
-8.3021129351835068	-38.620912998160193	0	0
-8.4126779970777275	-39.105330185506482	0	0
-0.49999999999999772	-39.5	0	0
-0.49999999999999689	-39.996874877920149	0	0
-7.9602041944577957e-015	-65	0	0
-4.8373548566320462e-015	-39.500000000000007	0	0
-1.5308084989341915e-015	-12.5	0	0
-4.9445114515574387e-015	-40.375	0	0
-37.017886023569325	-6.3848347156391743	0	0
-37.510529718423875	-2.0125009921089063	0	0
-24.993968283861083	-5.03006455478915	0	0
-25.48661197871564	-0.6577308312588821	0	0
-23.248022653531173	-10.465631500339651	0	0
-34.669010950262418	-14.462008149997171	0	0
-24.701250526133904	-6.3125448469828322	0	0
-36.122238822865157	-10.308921496640355	0	0
-20.336324092064679	-15.376407981791774	0	0
-30.581686902726918	-21.813996107627347	0	0
-22.677265228732161	-11.650821505187322	0	0
-32.922628039394397	-18.088409631022895	0	0
-16.404877323527906	-19.516147160748709	0	0
-24.960869375885132	-28.072139213105935	0	0
-19.516147160748716	-16.404877323527899	0	0
-28.072139213105942	-24.960869375885128	0	0
-11.650821505187325	-22.677265228732157	0	0
-18.088409631022898	-32.922628039394397	0	0
-15.376407981791774	-20.336324092064672	0	0
-21.81399610762735	-30.581686902726915	0	0
-6.312544846982834	-24.701250526133904	0	0
-10.308921496640354	-36.122238822865157	0	0
-10.465631500339651	-23.248022653531173	0	0
-14.462008149997171	-34.669010950262425	0	0
-0.65773083125888432	-25.486611978715636	0	0
-2.012500992108909	-37.510529718423882	0	0
-5.0300645547891509	-24.993968283861086	0	0
-6.384834715639176	-37.017886023569318	0	0
-3.061616997868383e-015	-25	0	0
-24.37319780454559	-5.5630233489078575	0	0
-22.524221697560478	-10.847093477938952	0	0
-19.54578706170075	-15.587245046468338	0	0
-15.58724504646834	-19.545787061700743	0	0
-10.847093477938952	-22.524221697560481	0	0
-5.5630233489078584	-24.37319780454559	0	0
0.49999999999999362	-39.5	0	0
1.8999999999999926	-42.250000000000007	0	0
1.8999999999999897	-53.000000000000007	0	0
2.5216389216837558	-40.296178009193994	0	0
2.5771907545622317	-40.931138364509231	0	0
4.7064101083735315	-53.794513696954262	0	0
2.8980257779750227	-53.92217954228289	0	0
9.2077702371509957	-41.278196027198625	0	0
11.074488147070493	-51.864879372079862	0	0
4.5140283178672478	-40.121866523698671	0	0
4.5695801507457228	-40.756826879013907	0	0
5.4655007757046041	-41.938059102332964	0	0
7.3322186856241043	-52.524742447214201	0	0
9.4806874386102766	-39.2461105167299	0	0
9.6456550229142763	-39.861777922954325	0	0
12.217486467925493	-52.599743577379314	0	0
13.976228435536109	-52.159994619609684	0	0
6.5094899587673973	-53.60621736773362	0	0
16.235767035002723	-39.052174955885867	0	0
19.912483575753662	-49.153870629334385	0	0
11.412539091188416	-38.72847242652486	0	0
11.577506675492415	-39.344139832749285	0	0
12.664935076016272	-40.351851500523402	0	0
16.341651616767209	-50.45354717397192	0	0
16.151670065173953	-37.003569815705134	0	0
16.42104094433202	-37.581237530243349	0	0
21.165725013894505	-49.679091020631603	0	0
22.821386133997759	-48.940620499979104	0	0
15.719218137073545	-51.661457404520604	0	0
22.770448267190428	-35.63957330989254	0	0
28.145448267190421	-44.949346400575251	0	0
17.964285639247247	-36.15833329222373	0	0
18.233656518405319	-36.736001006761953	0	0
19.479551732809558	-37.539573309892546	0	0
24.854551732809558	-46.849346400575257	0	0
22.331892369946726	-33.636694370539971	0	0
22.697481846103891	-34.158810252199714	0	0
29.470853715689969	-45.248964422055032	0	0
30.973127562956478	-44.234210391605565	0	0
24.451325826592893	-48.146990200030061	0	0
28.613260951182337	-31.144081263372403	0	0
35.523227755312639	-39.379059026901423	0	0
23.970196458524708	-32.48954149783787	0	0
24.335785934681873	-33.01165737949762	0	0
25.702292067330223	-33.586674180181248	0	0
32.612258871460519	-41.821651943710272	0	0
27.833571425541468	-29.247784987914574	0	0
28.284271247461895	-29.698484809835005	0	0
36.880525440305746	-39.443970936595107	0	0
38.183766184073555	-38.183766184073569	0	0
32.44049235383909	-43.169601061864199	0	0
33.586674180181248	-25.702292067330244	0	0
41.821651943710258	-32.61225887146054	0	0
29.247784987914567	-27.833571425541486	0	0
29.698484809834998	-28.284271247461916	0	0
31.144081263372396	-28.613260951182358	0	0
39.379059026901409	-35.523227755312661	0	0
32.48954149783787	-23.970196458524725	0	0
33.01165737949762	-24.335785934681894	0	0
43.169601061864185	-32.440492353839112	0	0
44.234210391605551	-30.973127562956506	0	0
39.443970936595093	-36.880525440305767	0	0
37.539573309892539	-19.479551732809579	0	0
46.849346400575257	-24.85455173280959	0	0
33.636694370539963	-22.331892369946743	0	0
34.158810252199714	-22.697481846103912	0	0
35.639573309892533	-22.770448267190449	0	0
44.949346400575251	-28.145448267190453	0	0
36.158333292223723	-17.964285639247272	0	0
36.736001006761953	-18.23365651840534	0	0
48.146990200030054	-24.451325826592925	0	0
48.940620499979097	-22.821386133997787	0	0
45.24896442205501	-29.470853715690001	0	0
40.351851500523402	-12.66493507601629	0	0
50.453547173971913	-16.341651616767233	0	0
37.003569815705127	-16.151670065173967	0	0
37.581237530243349	-16.421040944332038	0	0
39.052174955885867	-16.235767035002741	0	0
49.153870629334378	-19.912483575753686	0	0
38.728472426524853	-11.412539091188433	0	0
39.344139832749285	-11.577506675492433	0	0
51.661457404520597	-15.719218137073574	0	0
52.159994619609684	-13.976228435536139	0	0
49.679091020631596	-21.165725013894534	0	0
41.938059102332964	-5.4655007757046237	0	0
52.524742447214201	-7.3322186856241292	0	0
39.2461105167299	-9.4806874386102944	0	0
39.861777922954325	-9.6456550229142941	0	0
41.278196027198625	-9.2077702371510135	0	0
51.864879372079862	-11.07448814707052	0	0
40.121866523698671	-4.5140283178672673	0	0
40.756826879013907	-4.5695801507457423	0	0
53.60621736773362	-6.5094899587674222	0	0
53.794513696954262	-4.7064101083735563	0	0
52.599743577379314	-12.21748646792552	0	0
40.296178009193994	-2.5216389216837736	0	0
40.931138364509231	-2.5771907545622494	0	0
42.250000000000007	-1.9000000000000108	0	0
53.000000000000007	-1.9000000000000126	0	0
53.92217954228289	-2.8980257779750453	0	0
8.3021129351835015	-38.620912998160193	0	0
0.49999999999999223	-39.996874877920149	0	0
8.4126779970777221	-39.105330185506482	0	0
9.2770408473653241	-38.398392064203875	0	0
9.3876059092595447	-38.882809251550164	0	0
16.687923261192335	-35.805212151704346	0	0
16.903509191097907	-36.252880947953209	0	0
17.588892129094752	-35.371328412586777	0	0
17.804478059000324	-35.818997208835654	0	0