[Format]      =  4.0
[Frequency]   =  50
[Precision]   =  1e-008
[MinAngle]    =  30
[DoSmartMesh] =  1
[Depth]       =  1
[LengthUnits] =  centimeters
[ProblemType] =  planar
[Coordinates] =  cartesian
[ACSolver]    =  0
[PrevType]    =  0
[PrevSoln]    =  ""
[Comment]     =  "Add comments here."
[PointProps]   = 0
[BdryProps]   = 1
  <BeginBdry>
    <BdryName> = "A1"
    <BdryType> = 0
    <A_0> = 0
    <A_1> = 0
    <A_2> = 0
    <Phi> = 0
    <c0> = 0
    <c0i> = 0
    <c1> = 0
    <c1i> = 0
    <Mu_ssd> = 0
    <Sigma_ssd> = 0
    <innerangle> = 0
    <outerangle> = 0
  <EndBdry>
[BlockProps]  = 6
  <BeginBlock>
    <BlockName> = "M-19 Steel"
    <Mu_x> = 5000
    <Mu_y> = 5000
    <H_c> = 0
    <H_cAngle> = 0
    <J_re> = 0
    <J_im> = 0
    <Sigma> = 0
    <d_lam> = 0
    <Phi_h> = 0
    <Phi_hx> = 0
    <Phi_hy> = 0
    <LamType> = 0
    <LamFill> = 1
    <NStrands> = 0
    <WireD> = 0
    <BHPoints> = 0
  <EndBlock>
  <BeginBlock>
    <BlockName> = "Copper"
    <Mu_x> = 58
    <Mu_y> = 58
    <H_c> = 0
    <H_cAngle> = 0
    <J_re> = 0
    <J_im> = 0
    <Sigma> = 0
    <d_lam> = 0
    <Phi_h> = 0
    <Phi_hx> = 0
    <Phi_hy> = 0
    <LamType> = 0
    <LamFill> = 1
    <NStrands> = 0
    <WireD> = 0
    <BHPoints> = 0
  <EndBlock>
  <BeginBlock>
    <BlockName> = "Aluminum"
    <Mu_x> = 37
    <Mu_y> = 37
    <H_c> = 0
    <H_cAngle> = 0
    <J_re> = 0
    <J_im> = 0
    <Sigma> = 0
    <d_lam> = 0
    <Phi_h> = 0
    <Phi_hx> = 0
    <Phi_hy> = 0
    <LamType> = 0
    <LamFill> = 1
    <NStrands> = 0
    <WireD> = 0
    <BHPoints> = 0
  <EndBlock>
  <BeginBlock>
    <BlockName> = "Air"
    <Mu_x> = 1
    <Mu_y> = 1
    <H_c> = 1
    <H_cAngle> = 0
    <J_re> = 0
    <J_im> = 0
    <Sigma> = 0
    <d_lam> = 0
    <Phi_h> = 0
    <Phi_hx> = 0
    <Phi_hy> = 0
    <LamType> = 0
    <LamFill> = 1
    <NStrands> = 0
    <WireD> = 0
    <BHPoints> = 0
  <EndBlock>
  <BeginBlock>
    <BlockName> = "M-19 Steel"
    <Mu_x> = 5000
    <Mu_y> = 5000
    <H_c> = 0
    <H_cAngle> = 0
    <J_re> = 0
    <J_im> = 0
    <Sigma> = 0
    <d_lam> = 0
    <Phi_h> = 0
    <Phi_hx> = 0
    <Phi_hy> = 0
    <LamType> = 0
    <LamFill> = 1
    <NStrands> = 0
    <WireD> = 0
    <BHPoints> = 0
  <EndBlock>
  <BeginBlock>
    <BlockName> = "Air"
    <Mu_x> = 1
    <Mu_y> = 1
    <H_c> = 0
    <H_cAngle> = 0
    <J_re> = 0
    <J_im> = 0
    <Sigma> = 0
    <d_lam> = 0
    <Phi_h> = 0
    <Phi_hx> = 0
    <Phi_hy> = 0
    <LamType> = 0
    <LamFill> = 1
    <NStrands> = 0
    <WireD> = 0
    <BHPoints> = 0
  <EndBlock>
[CircuitProps]  = 6
  <BeginCircuit>
    <CircuitName> = "A"
    <TotalAmps_re> = 1
    <TotalAmps_im> = 0
    <CircuitType> = 1
  <EndCircuit>
  <BeginCircuit>
    <CircuitName> = "C"
    <TotalAmps_re> = 1
    <TotalAmps_im> = 0
    <CircuitType> = 1
  <EndCircuit>
  <BeginCircuit>
    <CircuitName> = "B"
    <TotalAmps_re> = 1
    <TotalAmps_im> = 0
    <CircuitType> = 1
  <EndCircuit>
  <BeginCircuit>
    <CircuitName> = "A1"
    <TotalAmps_re> = -1
    <TotalAmps_im> = -0
    <CircuitType> = 1
  <EndCircuit>
  <BeginCircuit>
    <CircuitName> = "C1"
    <TotalAmps_re> = -1
    <TotalAmps_im> = -0
    <CircuitType> = 1
  <EndCircuit>
  <BeginCircuit>
    <CircuitName> = "B1"
    <TotalAmps_re> = -1
    <TotalAmps_im> = -0
    <CircuitType> = 1
  <EndCircuit>
[NumPoints] = 498
-9.6970003104681393	60.245326413820202	0	0
-6.3968791902604245	61.990952864053654	0	0
-9.8666843603541672	61.534111191283586	0	0
-6.0533858142789736	72.787408875638491	0	0
-12.992996154466459	71.873725530098355	0	0
-9.6589382242815383	73.361595024839133	0	0
-7.2300746052159184	73.681384195778179	0	0
-12.087801843347158	73.041805853900087	0	0
-6.2271951403743966	60.70216808659027	0	0
-9.5664741182481183	59.253953508079135	0	0
-6.0966689481543757	59.710795180849203	0	0
-24.960457700845303	55.686229820289114	0	0
-22.224409434412195	58.226649758864141	0	0
-25.457946162125388	56.887257747725442	0	0
-24.687046453052318	68.744774769411379	0	0
-31.154119908478698	66.065990747133981	0	0
-28.318573949789577	68.366205100221748	0	0
-26.055098240390343	69.303779508018835	0	0
-30.582049659188812	67.428630692424662	0	0
-21.72692097313211	57.025621831427813	0	0
-24.577774269091389	54.762362183799631	0	0
-21.344237541378195	56.10175419493833	0	0
-38.522809645610195	47.329145402479902	0	0
-36.53746709204065	50.491167915826011	0	0
-39.314199424677078	48.360503126030565	0	0
-41.638497114070837	60.013633643839228	0	0
-47.191961779343679	55.752304064248349	0	0
-45.048341269960765	58.708055032884332	0	0
-43.104628637115269	60.199520385741138	0	0
-46.992053902806262	57.216589680027525	0	0
-35.746077312973767	49.459810192275349	0	0
-37.914048277097208	46.535793307440926	0	0
-35.137315944460781	48.666458097236372	0	0
-49.459810192275349	35.746077312973767	0	0
-48.360503126030565	39.314199424677078	0	0
-50.491167915826011	36.53746709204065	0	0
-55.752304064248349	47.191961779343679	0	0
-60.013633643839228	41.638497114070837	0	0
-58.708055032884332	45.048341269960765	0	0
-57.216589680027525	46.992053902806262	0	0
-60.199520385741138	43.104628637115269	0	0
-47.329145402479902	38.522809645610195	0	0
-48.666458097236372	35.137315944460781	0	0
-46.535793307440926	37.914048277097208	0	0
-57.025621831427813	21.72692097313211	0	0
-56.887257747725442	25.457946162125388	0	0
-58.226649758864141	22.224409434412195	0	0
-66.065990747133981	31.154119908478698	0	0
-68.744774769411379	24.687046453052318	0	0
-68.366205100221748	28.318573949789577	0	0
-67.428630692424662	30.582049659188812	0	0
-69.303779508018835	26.055098240390343	0	0
-55.686229820289114	24.960457700845303	0	0
-56.10175419493833	21.344237541378195	0	0
-54.762362183799631	24.577774269091389	0	0
-60.70216808659027	6.2271951403743966	0	0
-61.534111191283586	9.8666843603541672	0	0
-61.990952864053654	6.3968791902604245	0	0
-71.873725530098355	12.992996154466459	0	0
-72.787408875638491	6.0533858142789736	0	0
-73.361595024839133	9.6589382242815383	0	0
-73.041805853900087	12.087801843347158	0	0
-73.681384195778179	7.2300746052159184	0	0
-60.245326413820202	9.6970003104681393	0	0
-59.710795180849203	6.0966689481543757	0	0
-59.253953508079135	9.5664741182481183	0	0
-60.245326413820202	-9.6970003104681393	0	0
-61.990952864053654	-6.3968791902604245	0	0
-61.534111191283586	-9.8666843603541672	0	0
-72.787408875638491	-6.0533858142789736	0	0
-71.873725530098355	-12.992996154466459	0	0
-73.361595024839133	-9.6589382242815383	0	0
-73.681384195778179	-7.2300746052159184	0	0
-73.041805853900087	-12.087801843347158	0	0
-60.70216808659027	-6.2271951403743966	0	0
-59.253953508079135	-9.5664741182481183	0	0
-59.710795180849203	-6.0966689481543757	0	0
-55.686229820289114	-24.960457700845303	0	0
-58.226649758864141	-22.224409434412195	0	0
-56.887257747725442	-25.457946162125388	0	0
-68.744774769411379	-24.687046453052318	0	0
-66.065990747133981	-31.154119908478698	0	0
-68.366205100221748	-28.318573949789577	0	0
-69.303779508018835	-26.055098240390343	0	0
-67.428630692424662	-30.582049659188812	0	0
-57.025621831427813	-21.72692097313211	0	0
-54.762362183799631	-24.577774269091389	0	0
-56.10175419493833	-21.344237541378195	0	0
-47.329145402479902	-38.522809645610195	0	0
-50.491167915826011	-36.53746709204065	0	0
-48.360503126030565	-39.314199424677078	0	0
-60.013633643839228	-41.638497114070837	0	0
-55.752304064248349	-47.191961779343679	0	0
-58.708055032884332	-45.048341269960765	0	0
-60.199520385741138	-43.104628637115269	0	0
-57.216589680027525	-46.992053902806262	0	0
-49.459810192275349	-35.746077312973767	0	0
-46.535793307440926	-37.914048277097208	0	0
-48.666458097236372	-35.137315944460781	0	0
-35.746077312973767	-49.459810192275349	0	0
-39.314199424677078	-48.360503126030565	0	0
-36.53746709204065	-50.491167915826011	0	0
-47.191961779343679	-55.752304064248349	0	0
-41.638497114070837	-60.013633643839228	0	0
-45.048341269960765	-58.708055032884332	0	0
-46.992053902806262	-57.216589680027525	0	0
-43.104628637115269	-60.199520385741138	0	0
-38.522809645610195	-47.329145402479902	0	0
-35.137315944460781	-48.666458097236372	0	0
-37.914048277097208	-46.535793307440926	0	0
-21.72692097313211	-57.025621831427813	0	0
-25.457946162125388	-56.887257747725442	0	0
-22.224409434412195	-58.226649758864141	0	0
-31.154119908478698	-66.065990747133981	0	0
-24.687046453052318	-68.744774769411379	0	0
-28.318573949789577	-68.366205100221748	0	0
-30.582049659188812	-67.428630692424662	0	0
-26.055098240390343	-69.303779508018835	0	0
-24.960457700845303	-55.686229820289114	0	0
-21.344237541378195	-56.10175419493833	0	0
-24.577774269091389	-54.762362183799631	0	0
-6.2271951403743966	-60.70216808659027	0	0
-9.8666843603541672	-61.534111191283586	0	0
-6.3968791902604245	-61.990952864053654	0	0
-12.992996154466459	-71.873725530098355	0	0
-6.0533858142789736	-72.787408875638491	0	0
-9.6589382242815383	-73.361595024839133	0	0
-12.087801843347158	-73.041805853900087	0	0
-7.2300746052159184	-73.681384195778179	0	0
-9.6970003104681393	-60.245326413820202	0	0
-6.0966689481543757	-59.710795180849203	0	0
-9.5664741182481183	-59.253953508079135	0	0
9.6970003104681393	-60.245326413820202	0	0
6.3968791902604245	-61.990952864053654	0	0
9.8666843603541672	-61.534111191283586	0	0
6.0533858142789736	-72.787408875638491	0	0
12.992996154466459	-71.873725530098355	0	0
9.6589382242815383	-73.361595024839133	0	0
7.2300746052159184	-73.681384195778179	0	0
12.087801843347158	-73.041805853900087	0	0
6.2271951403743966	-60.70216808659027	0	0
9.5664741182481183	-59.253953508079135	0	0
6.0966689481543757	-59.710795180849203	0	0
24.960457700845303	-55.686229820289114	0	0
22.224409434412195	-58.226649758864141	0	0
25.457946162125388	-56.887257747725442	0	0
24.687046453052318	-68.744774769411379	0	0
31.154119908478698	-66.065990747133981	0	0
28.318573949789577	-68.366205100221748	0	0
26.055098240390343	-69.303779508018835	0	0
30.582049659188812	-67.428630692424662	0	0
21.72692097313211	-57.025621831427813	0	0
24.577774269091389	-54.762362183799631	0	0
21.344237541378195	-56.10175419493833	0	0
38.522809645610195	-47.329145402479902	0	0
36.53746709204065	-50.491167915826011	0	0
39.314199424677078	-48.360503126030565	0	0
41.638497114070837	-60.013633643839228	0	0
47.191961779343679	-55.752304064248349	0	0
45.048341269960765	-58.708055032884332	0	0
43.104628637115269	-60.199520385741138	0	0
46.992053902806262	-57.216589680027525	0	0
35.746077312973767	-49.459810192275349	0	0
37.914048277097208	-46.535793307440926	0	0
35.137315944460781	-48.666458097236372	0	0
49.459810192275349	-35.746077312973767	0	0
48.360503126030565	-39.314199424677078	0	0
50.491167915826011	-36.53746709204065	0	0
55.752304064248349	-47.191961779343679	0	0
60.013633643839228	-41.638497114070837	0	0
58.708055032884332	-45.048341269960765	0	0
57.216589680027525	-46.992053902806262	0	0
60.199520385741138	-43.104628637115269	0	0
47.329145402479902	-38.522809645610195	0	0
48.666458097236372	-35.137315944460781	0	0
46.535793307440926	-37.914048277097208	0	0
57.025621831427813	-21.72692097313211	0	0
56.887257747725442	-25.457946162125388	0	0
58.226649758864141	-22.224409434412195	0	0
66.065990747133981	-31.154119908478698	0	0
68.744774769411379	-24.687046453052318	0	0
68.366205100221748	-28.318573949789577	0	0
67.428630692424662	-30.582049659188812	0	0
69.303779508018835	-26.055098240390343	0	0
55.686229820289114	-24.960457700845303	0	0
56.10175419493833	-21.344237541378195	0	0
54.762362183799631	-24.577774269091389	0	0
60.70216808659027	-6.2271951403743966	0	0
61.534111191283586	-9.8666843603541672	0	0
61.990952864053654	-6.3968791902604245	0	0
71.873725530098355	-12.992996154466459	0	0
72.787408875638491	-6.0533858142789736	0	0
73.361595024839133	-9.6589382242815383	0	0
73.041805853900087	-12.087801843347158	0	0
73.681384195778179	-7.2300746052159184	0	0
60.245326413820202	-9.6970003104681393	0	0
59.710795180849203	-6.0966689481543757	0	0
59.253953508079135	-9.5664741182481183	0	0
60.245326413820202	9.6970003104681393	0	0
61.990952864053654	6.3968791902604245	0	0
61.534111191283586	9.8666843603541672	0	0
72.787408875638491	6.0533858142789736	0	0
71.873725530098355	12.992996154466459	0	0
73.361595024839133	9.6589382242815383	0	0
73.681384195778179	7.2300746052159184	0	0
73.041805853900087	12.087801843347158	0	0
60.70216808659027	6.2271951403743966	0	0
59.253953508079135	9.5664741182481183	0	0
59.710795180849203	6.0966689481543757	0	0
55.686229820289114	24.960457700845303	0	0
58.226649758864141	22.224409434412195	0	0
56.887257747725442	25.457946162125388	0	0
68.744774769411379	24.687046453052318	0	0
66.065990747133981	31.154119908478698	0	0
68.366205100221748	28.318573949789577	0	0
69.303779508018835	26.055098240390343	0	0
67.428630692424662	30.582049659188812	0	0
57.025621831427813	21.72692097313211	0	0
54.762362183799631	24.577774269091389	0	0
56.10175419493833	21.344237541378195	0	0
47.329145402479902	38.522809645610195	0	0
50.491167915826011	36.53746709204065	0	0
48.360503126030565	39.314199424677078	0	0
60.013633643839228	41.638497114070837	0	0
55.752304064248349	47.191961779343679	0	0
58.708055032884332	45.048341269960765	0	0
60.199520385741138	43.104628637115269	0	0
57.216589680027525	46.992053902806262	0	0
49.459810192275349	35.746077312973767	0	0
46.535793307440926	37.914048277097208	0	0
48.666458097236372	35.137315944460781	0	0
35.746077312973767	49.459810192275349	0	0
39.314199424677078	48.360503126030565	0	0
36.53746709204065	50.491167915826011	0	0
47.191961779343679	55.752304064248349	0	0
41.638497114070837	60.013633643839228	0	0
45.048341269960765	58.708055032884332	0	0
46.992053902806262	57.216589680027525	0	0
43.104628637115269	60.199520385741138	0	0
38.522809645610195	47.329145402479902	0	0
35.137315944460781	48.666458097236372	0	0
37.914048277097208	46.535793307440926	0	0
21.72692097313211	57.025621831427813	0	0
25.457946162125388	56.887257747725442	0	0
22.224409434412195	58.226649758864141	0	0
31.154119908478698	66.065990747133981	0	0
24.687046453052318	68.744774769411379	0	0
28.318573949789577	68.366205100221748	0	0
30.582049659188812	67.428630692424662	0	0
26.055098240390343	69.303779508018835	0	0
24.960457700845303	55.686229820289114	0	0
21.344237541378195	56.10175419493833	0	0
24.577774269091389	54.762362183799631	0	0
6.2271951403743966	60.70216808659027	0	0
9.8666843603541672	61.534111191283586	0	0
6.3968791902604245	61.990952864053654	0	0
12.992996154466459	71.873725530098355	0	0
6.0533858142789736	72.787408875638491	0	0
9.6589382242815383	73.361595024839133	0	0
12.087801843347158	73.041805853900087	0	0
7.2300746052159184	73.681384195778179	0	0
9.6970003104681393	60.245326413820202	0	0
6.0966689481543757	59.710795180849203	0	0
9.5664741182481183	59.253953508079135	0	0
84	0	0	0
-84	0	0	0
0	45.992782664376946	0	0
0.89985879125954882	46.992625765776445	0	0
-0.89985879125954882	46.992625765776445	0	0
2.9995293041984965	55.991213678371935	0	0
-2.9995293041984965	55.991213678371935	0	0
0	57.990899881170932	0	0
2.9995293041984965	57.990899881170932	0	0
-2.9995293041984965	57.990899881170932	0	0
-2.9995293041984965	58.990742982570431	0	0
2.9995293041984965	58.990742982570431	0	0
-12.410651472149725	44.292893015339125	0	0
-11.813848162548519	45.498599087953771	0	0
-13.547048324018311	45.012964899913136	0	0
-12.219952247703635	54.731173114683479	0	0
-17.997286119269607	53.112392487881344	0	0
-15.648212725754	55.847560758471069	0	0
-12.759545789971014	56.656951071872136	0	0
-18.536879661536986	55.038170445070001	0	0
-18.806676432670674	56.00105942366433	0	0
-13.029342561104704	57.619840050466465	0	0
-23.900861153157138	39.30313657874779	0	0
-23.65147067994592	40.625178135630165	0	0
-25.189419502592575	39.689927047028362	0	0
-26.533452496533833	49.406048518898857	0	0
-31.659948572022678	46.288544890226191	0	0
-30.135868410502479	49.556128729725472	0	0
-27.572620372758056	51.114880544061805	0	0
-32.699116448246897	47.99737691538914	0	0
-33.218700386359011	48.851792927970614	0	0
-28.092204310870169	51.969296556643279	0	0
-33.618433342929656	31.397434975666791	0	0
-33.734971209556385	32.737739866629909	0	0
-34.963566491212909	31.422235953210919	0	0
-38.8791296147187	40.415470840568027	0	0
-42.974447220240457	36.030457795838068	0	0
-42.388459432389567	39.588070186710297	0	0
-40.340800629628689	41.780576709075277	0	0
-44.436118235150445	37.395563664345318	0	0
-45.166953742605436	38.078116598598946	0	0
-41.071636137083679	42.463129643328905	0	0
-40.842441499033654	21.162991570625586	0	0
-41.316262131326489	22.422147851489843	0	0
-42.144379192785756	20.823965358049396	0	0
-48.341038026826254	28.42727940113334	0	0
-51.101428231690463	23.100004422998516	0	0
-51.496991455303302	26.683771980353995	0	0
-50.116796352871198	29.347409469421407	0	0
-52.877186557735406	24.020134491286584	0	0
-53.765065720757875	24.480199525430617	0	0
-51.004675515893666	29.807474503565441	0	0
-45.035805254422904	9.3589766003405543	0	0
-45.831734087338475	10.443567933586667	0	0
-46.197954910830063	8.6812972931962058	0	0
-54.21582966188393	14.330654464833474	0	0
-55.436565740189224	8.4564189968652688	0	0
-56.784276190359314	11.800448756951134	0	0
-56.173908151206668	14.737566490935237	0	0
-57.394644229511961	8.8633310229670315	0	0
-58.373683474173326	9.0667870360179137	0	0
-57.152947395868033	14.941022503986119	0	0
-45.887916618653456	-3.139151014774872	0	0
-46.946898195434997	-2.3095863638615408	0	0
-46.824061851378588	-4.1052004924175458	0	0
-56.068277906280834	-0.82888493416157516	0	0
-55.658823426092802	-6.8142653626815912	0	0
-57.85867747569349	-3.9580599751509253	0	0
-58.063404715787506	-0.96536976089091731	0	0
-57.653950235599474	-6.9507501894109334	0	0
-58.65151364035281	-7.0189926027756044	0	0
-59.060968120540842	-1.0336121742555884	0	0
-43.343200691377035	-15.404462151870886	0	0
-44.586835835465315	-14.891322619906354	0	0
-43.984052533870361	-16.587360907829805	0	0
-53.770274460276667	-15.926527791970402	0	0
-51.760996788293511	-21.579988751715234	0	0
-54.650122610866696	-19.423017495837204	0	0
-55.654761446858274	-16.596287015964787	0	0
-53.645483774875117	-22.249747975709621	0	0
-54.587727268165921	-22.584627587706812	0	0
-56.597004940149077	-16.931166627961979	0	0
-37.580531118511352	-26.527293235252259	0	0
-38.916511445255665	-26.368702261960777	0	0
-37.878486927354487	-27.839244783989486	0	0
-47.480252659617221	-29.843191909099833	0	0
-44.020170933279971	-34.745000315862185	0	0
-47.384147932036051	-33.44745668792676	0	0
-49.114188795204676	-30.996552484545585	0	0
-45.654107068867425	-35.898360891307938	0	0
-46.471075136661149	-36.475041179030811	0	0
-49.9311568629984	-31.573232772268462	0	0
-29.030041358781556	-35.682676229859418	0	0
-30.359268531947972	-35.890407512619333	0	0
-28.962989896866514	-37.026365652745568	0	0
-37.668050973507512	-41.546516191212667	0	0
-33.013788856569327	-45.333043324966788	0	0
-36.603095626289793	-44.991200463735787	0	0
-38.930226684758885	-43.097936896858727	0	0
-34.275964567820701	-46.884464030612847	0	0
-34.907052423446387	-47.66017438343588	0	0
-39.561314540384572	-43.87364724968176	0	0
-18.326450091696355	-42.191239854198543	0	0
-19.550331960402335	-42.749879740539228	0	0
-17.899370400890216	-43.467001700649092	0	0
-25.062063580382421	-50.168045251304989	0	0
-19.558858382008701	-52.558451785004507	0	0
-23.107263159095403	-53.197650250945991	0	0
-25.858865758282263	-52.002446984096231	0	0
-20.355660559908543	-54.39285351779575	0	0
-20.754061648858464	-55.310054384191368	0	0
-26.257266847232184	-52.919647850491849	0	0
-6.2636658584252674	-45.568358988281091	0	0
-7.2913873572921855	-46.43642550383975	0	0
-5.5082776577507513	-46.681525472212918	0	0
-10.597181848623006	-55.066024038444901	0	0
-4.6534828501515584	-55.883023933022109	0	0
-7.8976656475796849	-57.455756985223985	0	0
-10.869515146815409	-57.047257037935381	0	0
-4.9258161483439613	-57.864256932512589	0	0
-5.0619827974401623	-58.854873432257833	0	0
-11.005681795911611	-58.037873537680625	0	0
6.2636658584252674	-45.568358988281091	0	0
5.5082776577507513	-46.681525472212918	0	0
7.2913873572921855	-46.43642550383975	0	0
4.6534828501515584	-55.883023933022109	0	0
10.597181848623006	-55.066024038444901	0	0
7.8976656475796849	-57.455756985223985	0	0
4.9258161483439613	-57.864256932512589	0	0
10.869515146815409	-57.047257037935381	0	0
11.005681795911611	-58.037873537680625	0	0
5.0619827974401623	-58.854873432257833	0	0
18.326450091696355	-42.19123985419855	0	0
17.899370400890216	-43.467001700649107	0	0
19.550331960402335	-42.749879740539242	0	0
19.558858382008701	-52.558451785004522	0	0
25.062063580382421	-50.168045251305003	0	0
23.107263159095403	-53.197650250945998	0	0
20.355660559908543	-54.392853517795757	0	0
25.858865758282263	-52.002446984096238	0	0
26.257266847232184	-52.919647850491856	0	0
20.754061648858464	-55.310054384191375	0	0
29.030041358781556	-35.682676229859418	0	0
28.962989896866514	-37.026365652745568	0	0
30.359268531947972	-35.890407512619333	0	0
33.013788856569327	-45.333043324966788	0	0
37.668050973507512	-41.546516191212667	0	0
36.603095626289793	-44.991200463735787	0	0
34.275964567820701	-46.884464030612847	0	0
38.930226684758885	-43.097936896858727	0	0
39.561314540384572	-43.87364724968176	0	0
34.907052423446387	-47.66017438343588	0	0
37.580531118511367	-26.527293235252259	0	0
37.878486927354501	-27.839244783989486	0	0
38.916511445255679	-26.368702261960777	0	0
44.020170933279992	-34.745000315862185	0	0
47.480252659617243	-29.843191909099833	0	0
47.384147932036072	-33.44745668792676	0	0
45.654107068867447	-35.898360891307938	0	0
49.114188795204697	-30.996552484545585	0	0
49.931156862998421	-31.573232772268462	0	0
46.47107513666117	-36.475041179030811	0	0
43.343200691377035	-15.404462151870867	0	0
43.984052533870369	-16.587360907829783	0	0
44.586835835465308	-14.891322619906333	0	0
51.760996788293511	-21.579988751715209	0	0
53.770274460276667	-15.926527791970377	0	0
54.650122610866696	-19.423017495837179	0	0
53.645483774875117	-22.249747975709596	0	0
55.654761446858274	-16.596287015964762	0	0
56.597004940149077	-16.931166627961954	0	0
54.587727268165921	-22.584627587706787	0	0
45.887916618653456	-3.139151014774872	0	0
46.824061851378588	-4.1052004924175458	0	0
46.946898195434997	-2.3095863638615408	0	0
55.658823426092802	-6.8142653626815912	0	0
56.068277906280834	-0.82888493416157516	0	0
57.85867747569349	-3.9580599751509253	0	0
57.653950235599474	-6.9507501894109334	0	0
58.063404715787506	-0.96536976089091731	0	0
59.060968120540842	-1.0336121742555884	0	0
58.65151364035281	-7.0189926027756044	0	0
45.035805254422897	9.3589766003405632	0	0
46.197954910830063	8.6812972931962147	0	0
45.831734087338475	10.443567933586676	0	0
55.436565740189224	8.4564189968652794	0	0
54.21582966188393	14.330654464833485	0	0
56.784276190359307	11.800448756951145	0	0
57.394644229511954	8.8633310229670421	0	0
56.17390815120666	14.737566490935247	0	0
57.152947395868026	14.94102250398613	0	0
58.373683474173319	9.0667870360179244	0	0
40.842441499033662	21.162991570625568	0	0
42.14437919278577	20.823965358049378	0	0
41.316262131326503	22.422147851489825	0	0
51.101428231690477	23.100004422998499	0	0
48.341038026826268	28.427279401133323	0	0
51.496991455303316	26.683771980353978	0	0
52.877186557735421	24.020134491286566	0	0
50.116796352871212	29.34740946942139	0	0
51.00467551589368	29.807474503565423	0	0
53.765065720757889	24.480199525430599	0	0
33.618433342929656	31.397434975666791	0	0
34.963566491212909	31.422235953210919	0	0
33.734971209556385	32.737739866629909	0	0
42.974447220240457	36.030457795838068	0	0
38.8791296147187	40.415470840568027	0	0
42.388459432389567	39.588070186710297	0	0
44.436118235150445	37.395563664345318	0	0
40.340800629628689	41.780576709075277	0	0
41.071636137083679	42.463129643328905	0	0
45.166953742605436	38.078116598598946	0	0
23.900861153157127	39.303136578747797	0	0
25.189419502592564	39.68992704702837	0	0
23.651470679945909	40.625178135630172	0	0
31.659948572022664	46.288544890226198	0	0
26.533452496533819	49.406048518898864	0	0
30.135868410502464	49.556128729725479	0	0
32.699116448246883	47.997376915389147	0	0
27.572620372758042	51.114880544061812	0	0
28.092204310870152	51.969296556643286	0	0
33.218700386358996	48.851792927970621	0	0
12.410651472149743	44.292893015339125	0	0
13.547048324018329	45.012964899913129	0	0
11.813848162548537	45.498599087953778	0	0
17.997286119269628	53.112392487881344	0	0
12.219952247703656	54.731173114683479	0	0
15.648212725754023	55.847560758471069	0	0
18.536879661537011	55.038170445070001	0	0
12.759545789971037	56.656951071872136	0	0
13.029342561104727	57.619840050466465	0	0
18.806676432670702	56.00105942366433	0	0
15.333333333333332	0	0	0
-15.333333333333332	0	0	0
[NumSegments] = 306
7	5	-1	0	0	0
5	6	-1	0	0	0
3	1	-1	0	0	0
4	2	-1	0	0	0
8	0	-1	0	0	0
0	9	-1	0	0	0
8	10	-1	0	0	0
18	16	-1	0	0	0
16	17	-1	0	0	0
14	12	-1	0	0	0
15	13	-1	0	0	0
19	11	-1	0	0	0
11	20	-1	0	0	0
19	21	-1	0	0	0
29	27	-1	0	0	0
27	28	-1	0	0	0
25	23	-1	0	0	0
26	24	-1	0	0	0
30	22	-1	0	0	0
22	31	-1	0	0	0
30	32	-1	0	0	0
40	38	-1	0	0	0
38	39	-1	0	0	0
36	34	-1	0	0	0
37	35	-1	0	0	0
41	33	-1	0	0	0
33	42	-1	0	0	0
41	43	-1	0	0	0
51	49	-1	0	0	0
49	50	-1	0	0	0
47	45	-1	0	0	0
48	46	-1	0	0	0
52	44	-1	0	0	0
44	53	-1	0	0	0
52	54	-1	0	0	0
62	60	-1	0	0	0
60	61	-1	0	0	0
58	56	-1	0	0	0
59	57	-1	0	0	0
63	55	-1	0	0	0
55	64	-1	0	0	0
63	65	-1	0	0	0
73	71	-1	0	0	0
71	72	-1	0	0	0
69	67	-1	0	0	0
70	68	-1	0	0	0
74	66	-1	0	0	0
66	75	-1	0	0	0
74	76	-1	0	0	0
84	82	-1	0	0	0
82	83	-1	0	0	0
80	78	-1	0	0	0
81	79	-1	0	0	0
85	77	-1	0	0	0
77	86	-1	0	0	0
85	87	-1	0	0	0
95	93	-1	0	0	0
93	94	-1	0	0	0
91	89	-1	0	0	0
92	90	-1	0	0	0
96	88	-1	0	0	0
88	97	-1	0	0	0
96	98	-1	0	0	0
106	104	-1	0	0	0
104	105	-1	0	0	0
102	100	-1	0	0	0
103	101	-1	0	0	0
107	99	-1	0	0	0
99	108	-1	0	0	0
107	109	-1	0	0	0
117	115	-1	0	0	0
115	116	-1	0	0	0
113	111	-1	0	0	0
114	112	-1	0	0	0
118	110	-1	0	0	0
110	119	-1	0	0	0
118	120	-1	0	0	0
128	126	-1	0	0	0
126	127	-1	0	0	0
124	122	-1	0	0	0
125	123	-1	0	0	0
129	121	-1	0	0	0
121	130	-1	0	0	0
129	131	-1	0	0	0
139	137	-1	0	0	0
137	138	-1	0	0	0
135	133	-1	0	0	0
136	134	-1	0	0	0
140	132	-1	0	0	0
132	141	-1	0	0	0
140	142	-1	0	0	0
150	148	-1	0	0	0
148	149	-1	0	0	0
146	144	-1	0	0	0
147	145	-1	0	0	0
151	143	-1	0	0	0
143	152	-1	0	0	0
151	153	-1	0	0	0
161	159	-1	0	0	0
159	160	-1	0	0	0
157	155	-1	0	0	0
158	156	-1	0	0	0
162	154	-1	0	0	0
154	163	-1	0	0	0
162	164	-1	0	0	0
172	170	-1	0	0	0
170	171	-1	0	0	0
168	166	-1	0	0	0
169	167	-1	0	0	0
173	165	-1	0	0	0
165	174	-1	0	0	0
173	175	-1	0	0	0
183	181	-1	0	0	0
181	182	-1	0	0	0
179	177	-1	0	0	0
180	178	-1	0	0	0
184	176	-1	0	0	0
176	185	-1	0	0	0
184	186	-1	0	0	0
194	192	-1	0	0	0
192	193	-1	0	0	0
190	188	-1	0	0	0
191	189	-1	0	0	0
195	187	-1	0	0	0
187	196	-1	0	0	0
195	197	-1	0	0	0
205	203	-1	0	0	0
203	204	-1	0	0	0
201	199	-1	0	0	0
202	200	-1	0	0	0
206	198	-1	0	0	0
198	207	-1	0	0	0
206	208	-1	0	0	0
216	214	-1	0	0	0
214	215	-1	0	0	0
212	210	-1	0	0	0
213	211	-1	0	0	0
217	209	-1	0	0	0
209	218	-1	0	0	0
217	219	-1	0	0	0
227	225	-1	0	0	0
225	226	-1	0	0	0
223	221	-1	0	0	0
224	222	-1	0	0	0
228	220	-1	0	0	0
220	229	-1	0	0	0
228	230	-1	0	0	0
238	236	-1	0	0	0
236	237	-1	0	0	0
234	232	-1	0	0	0
235	233	-1	0	0	0
239	231	-1	0	0	0
231	240	-1	0	0	0
239	241	-1	0	0	0
249	247	-1	0	0	0
247	248	-1	0	0	0
245	243	-1	0	0	0
246	244	-1	0	0	0
250	242	-1	0	0	0
242	251	-1	0	0	0
250	252	-1	0	0	0
260	258	-1	0	0	0
258	259	-1	0	0	0
256	254	-1	0	0	0
257	255	-1	0	0	0
261	253	-1	0	0	0
253	262	-1	0	0	0
261	263	-1	0	0	0
273	271	-1	0	0	0
271	272	-1	0	0	0
269	267	-1	0	0	0
270	268	-1	0	0	0
273	274	-1	0	0	0
272	275	-1	0	0	0
283	281	-1	0	0	0
281	282	-1	0	0	0
279	277	-1	0	0	0
280	278	-1	0	0	0
283	284	-1	0	0	0
282	285	-1	0	0	0
293	291	-1	0	0	0
291	292	-1	0	0	0
289	287	-1	0	0	0
290	288	-1	0	0	0
293	294	-1	0	0	0
292	295	-1	0	0	0
303	301	-1	0	0	0
301	302	-1	0	0	0
299	297	-1	0	0	0
300	298	-1	0	0	0
303	304	-1	0	0	0
302	305	-1	0	0	0
313	311	-1	0	0	0
311	312	-1	0	0	0
309	307	-1	0	0	0
310	308	-1	0	0	0
313	314	-1	0	0	0
312	315	-1	0	0	0
323	321	-1	0	0	0
321	322	-1	0	0	0
319	317	-1	0	0	0
320	318	-1	0	0	0
323	324	-1	0	0	0
322	325	-1	0	0	0
333	331	-1	0	0	0
331	332	-1	0	0	0
329	327	-1	0	0	0
330	328	-1	0	0	0
333	334	-1	0	0	0
332	335	-1	0	0	0
343	341	-1	0	0	0
341	342	-1	0	0	0
339	337	-1	0	0	0
340	338	-1	0	0	0
343	344	-1	0	0	0
342	345	-1	0	0	0
353	351	-1	0	0	0
351	352	-1	0	0	0
349	347	-1	0	0	0
350	348	-1	0	0	0
353	354	-1	0	0	0
352	355	-1	0	0	0
363	361	-1	0	0	0
361	362	-1	0	0	0
359	357	-1	0	0	0
360	358	-1	0	0	0
363	364	-1	0	0	0
362	365	-1	0	0	0
373	371	-1	0	0	0
371	372	-1	0	0	0
369	367	-1	0	0	0
370	368	-1	0	0	0
373	374	-1	0	0	0
372	375	-1	0	0	0
383	381	-1	0	0	0
381	382	-1	0	0	0
379	377	-1	0	0	0
380	378	-1	0	0	0
383	384	-1	0	0	0
382	385	-1	0	0	0
393	391	-1	0	0	0
391	392	-1	0	0	0
389	387	-1	0	0	0
390	388	-1	0	0	0
393	394	-1	0	0	0
392	395	-1	0	0	0
403	401	-1	0	0	0
401	402	-1	0	0	0
399	397	-1	0	0	0
400	398	-1	0	0	0
403	404	-1	0	0	0
402	405	-1	0	0	0
413	411	-1	0	0	0
411	412	-1	0	0	0
409	407	-1	0	0	0
410	408	-1	0	0	0
413	414	-1	0	0	0
412	415	-1	0	0	0
423	421	-1	0	0	0
421	422	-1	0	0	0
419	417	-1	0	0	0
420	418	-1	0	0	0
423	424	-1	0	0	0
422	425	-1	0	0	0
433	431	-1	0	0	0
431	432	-1	0	0	0
429	427	-1	0	0	0
430	428	-1	0	0	0
433	434	-1	0	0	0
432	435	-1	0	0	0
443	441	-1	0	0	0