[Format]      =  4.0
[Frequency]   =  50
[Precision]   =  1e-008
[MinAngle]    =  30
[DoSmartMesh] =  1
[Depth]       =  1
[LengthUnits] =  centimeters
[ProblemType] =  planar
[Coordinates] =  cartesian
[ACSolver]    =  0
[PrevType]    =  0
[PrevSoln]    =  ""
[Comment]     =  "Add comments here."
[PointProps]   = 0
[BdryProps]   = 1
  <BeginBdry>
    <BdryName> = "A1"
    <BdryType> = 0
    <A_0> = 0
    <A_1> = 0
    <A_2> = 0
    <Phi> = 0
    <c0> = 0
    <c0i> = 0
    <c1> = 0
    <c1i> = 0
    <Mu_ssd> = 0
    <Sigma_ssd> = 0
    <innerangle> = 0
    <outerangle> = 0
  <EndBdry>
[BlockProps]  = 6
  <BeginBlock>
    <BlockName> = "M-19 Steel"
    <Mu_x> = 5000
    <Mu_y> = 5000
    <H_c> = 0
    <H_cAngle> = 0
    <J_re> = 0
    <J_im> = 0
    <Sigma> = 0
    <d_lam> = 0
    <Phi_h> = 0
    <Phi_hx> = 0
    <Phi_hy> = 0
    <LamType> = 0
    <LamFill> = 1
    <NStrands> = 0
    <WireD> = 0
    <BHPoints> = 0
  <EndBlock>
  <BeginBlock>
    <BlockName> = "Copper"
    <Mu_x> = 58
    <Mu_y> = 58
    <H_c> = 0
    <H_cAngle> = 0
    <J_re> = 0
    <J_im> = 0
    <Sigma> = 0
    <d_lam> = 0
    <Phi_h> = 0
    <Phi_hx> = 0
    <Phi_hy> = 0
    <LamType> = 0
    <LamFill> = 1
    <NStrands> = 0
    <WireD> = 0
    <BHPoints> = 0
  <EndBlock>
  <BeginBlock>
    <BlockName> = "Aluminum"
    <Mu_x> = 37
    <Mu_y> = 37
    <H_c> = 0
    <H_cAngle> = 0
    <J_re> = 0
    <J_im> = 0
    <Sigma> = 0
    <d_lam> = 0
    <Phi_h> = 0
    <Phi_hx> = 0
    <Phi_hy> = 0
    <LamType> = 0
    <LamFill> = 1
    <NStrands> = 0
    <WireD> = 0
    <BHPoints> = 0
  <EndBlock>
  <BeginBlock>
    <BlockName> = "Air"
    <Mu_x> = 1
    <Mu_y> = 1
    <H_c> = 1
    <H_cAngle> = 0
    <J_re> = 0
    <J_im> = 0
    <Sigma> = 0
    <d_lam> = 0
    <Phi_h> = 0
    <Phi_hx> = 0
    <Phi_hy> = 0
    <LamType> = 0
    <LamFill> = 1
    <NStrands> = 0
    <WireD> = 0
    <BHPoints> = 0
  <EndBlock>
  <BeginBlock>
    <BlockName> = "M-19 Steel"
    <Mu_x> = 5000
    <Mu_y> = 5000
    <H_c> = 0
    <H_cAngle> = 0
    <J_re> = 0
    <J_im> = 0
    <Sigma> = 0
    <d_lam> = 0
    <Phi_h> = 0
    <Phi_hx> = 0
    <Phi_hy> = 0
    <LamType> = 0
    <LamFill> = 1
    <NStrands> = 0
    <WireD> = 0
    <BHPoints> = 0
  <EndBlock>
  <BeginBlock>
    <BlockName> = "Air"
    <Mu_x> = 1
    <Mu_y> = 1
    <H_c> = 0
    <H_cAngle> = 0
    <J_re> = 0
    <J_im> = 0
    <Sigma> = 0
    <d_lam> = 0
    <Phi_h> = 0
    <Phi_hx> = 0
    <Phi_hy> = 0
    <LamType> = 0
    <LamFill> = 1
    <NStrands> = 0
    <WireD> = 0
    <BHPoints> = 0
  <EndBlock>
[CircuitProps]  = 6
  <BeginCircuit>
    <CircuitName> = "A"
    <TotalAmps_re> = 1
    <TotalAmps_im> = 0
    <CircuitType> = 1
  <EndCircuit>
  <BeginCircuit>
    <CircuitName> = "C"
    <TotalAmps_re> = 1
    <TotalAmps_im> = 0
    <CircuitType> = 1
  <EndCircuit>
  <BeginCircuit>
    <CircuitName> = "B"
    <TotalAmps_re> = 1
    <TotalAmps_im> = 0
    <CircuitType> = 1
  <EndCircuit>
  <BeginCircuit>
    <CircuitName> = "A1"
    <TotalAmps_re> = -1
    <TotalAmps_im> = -0
    <CircuitType> = 1
  <EndCircuit>
  <BeginCircuit>
    <CircuitName> = "C1"
    <TotalAmps_re> = -1
    <TotalAmps_im> = -0
    <CircuitType> = 1
  <EndCircuit>
  <BeginCircuit>
    <CircuitName> = "B1"
    <TotalAmps_re> = -1
    <TotalAmps_im> = -0
    <CircuitType> = 1
  <EndCircuit>
[NumPoints] = 500
-8.6560587594400165	60.382378915651223	0	0
-6.3968791902604245	61.990952864053654	0	0
-9.8666843603541672	61.534111191283586	0	0
-6.0533858142789736	72.787408875638491	0	0
-12.992996154466459	71.873725530098355	0	0
-9.6589382242815383	73.361595024839133	0	0
-7.2300746052159184	73.681384195778179	0	0
-12.087801843347158	73.041805853900087	0	0
-7.2681366914025194	60.565115584759248	0	0
-23.990396682531344	56.088047423630726	0	0
-22.224409434412195	58.226649758864141	0	0
-25.457946162125388	56.887257747725442	0	0
-24.687046453052318	68.744774769411379	0	0
-31.154119908478698	66.065990747133981	0	0
-28.318573949789577	68.366205100221748	0	0
-26.055098240390343	69.303779508018835	0	0
-30.582049659188812	67.428630692424662	0	0
-22.696981991446069	56.6238042280862	0	0
-37.689789945819264	47.968344839418535	0	0
-36.53746709204065	50.491167915826011	0	0
-39.314199424677078	48.360503126030565	0	0
-41.638497114070837	60.013633643839228	0	0
-47.191961779343679	55.752304064248349	0	0
-45.048341269960765	58.708055032884332	0	0
-43.104628637115269	60.199520385741138	0	0
-46.992053902806262	57.216589680027525	0	0
-36.579097012764699	48.820610755336716	0	0
-48.820610755336716	36.579097012764699	0	0
-48.360503126030565	39.314199424677078	0	0
-50.491167915826011	36.53746709204065	0	0
-55.752304064248349	47.191961779343679	0	0
-60.013633643839228	41.638497114070837	0	0
-58.708055032884332	45.048341269960765	0	0
-57.216589680027525	46.992053902806262	0	0
-60.199520385741138	43.104628637115269	0	0
-47.968344839418535	37.689789945819264	0	0
-56.6238042280862	22.696981991446069	0	0
-56.887257747725442	25.457946162125388	0	0
-58.226649758864141	22.224409434412195	0	0
-66.065990747133981	31.154119908478698	0	0
-68.744774769411379	24.687046453052318	0	0
-68.366205100221748	28.318573949789577	0	0
-67.428630692424662	30.582049659188812	0	0
-69.303779508018835	26.055098240390343	0	0
-56.088047423630726	23.990396682531344	0	0
-60.565115584759248	7.2681366914025194	0	0
-61.534111191283586	9.8666843603541672	0	0
-61.990952864053654	6.3968791902604245	0	0
-71.873725530098355	12.992996154466459	0	0
-72.787408875638491	6.0533858142789736	0	0
-73.361595024839133	9.6589382242815383	0	0
-73.041805853900087	12.087801843347158	0	0
-73.681384195778179	7.2300746052159184	0	0
-60.382378915651223	8.6560587594400165	0	0
-60.382378915651223	-8.6560587594400165	0	0
-61.990952864053654	-6.3968791902604245	0	0
-61.534111191283586	-9.8666843603541672	0	0
-72.787408875638491	-6.0533858142789736	0	0
-71.873725530098355	-12.992996154466459	0	0
-73.361595024839133	-9.6589382242815383	0	0
-73.681384195778179	-7.2300746052159184	0	0
-73.041805853900087	-12.087801843347158	0	0
-60.565115584759248	-7.2681366914025194	0	0
-56.088047423630726	-23.990396682531344	0	0
-58.226649758864141	-22.224409434412195	0	0
-56.887257747725442	-25.457946162125388	0	0
-68.744774769411379	-24.687046453052318	0	0
-66.065990747133981	-31.154119908478698	0	0
-68.366205100221748	-28.318573949789577	0	0
-69.303779508018835	-26.055098240390343	0	0
-67.428630692424662	-30.582049659188812	0	0
-56.6238042280862	-22.696981991446069	0	0
-47.968344839418535	-37.689789945819264	0	0
-50.491167915826011	-36.53746709204065	0	0
-48.360503126030565	-39.314199424677078	0	0
-60.013633643839228	-41.638497114070837	0	0
-55.752304064248349	-47.191961779343679	0	0
-58.708055032884332	-45.048341269960765	0	0
-60.199520385741138	-43.104628637115269	0	0
-57.216589680027525	-46.992053902806262	0	0
-48.820610755336716	-36.579097012764699	0	0
-36.579097012764699	-48.820610755336716	0	0
-39.314199424677078	-48.360503126030565	0	0
-36.53746709204065	-50.491167915826011	0	0
-47.191961779343679	-55.752304064248349	0	0
-41.638497114070837	-60.013633643839228	0	0
-45.048341269960765	-58.708055032884332	0	0
-46.992053902806262	-57.216589680027525	0	0
-43.104628637115269	-60.199520385741138	0	0
-37.689789945819264	-47.968344839418535	0	0
-22.696981991446069	-56.6238042280862	0	0
-25.457946162125388	-56.887257747725442	0	0
-22.224409434412195	-58.226649758864141	0	0
-31.154119908478698	-66.065990747133981	0	0
-24.687046453052318	-68.744774769411379	0	0
-28.318573949789577	-68.366205100221748	0	0
-30.582049659188812	-67.428630692424662	0	0
-26.055098240390343	-69.303779508018835	0	0
-23.990396682531344	-56.088047423630726	0	0
-7.2681366914025194	-60.565115584759248	0	0
-9.8666843603541672	-61.534111191283586	0	0
-6.3968791902604245	-61.990952864053654	0	0
-12.992996154466459	-71.873725530098355	0	0
-6.0533858142789736	-72.787408875638491	0	0
-9.6589382242815383	-73.361595024839133	0	0
-12.087801843347158	-73.041805853900087	0	0
-7.2300746052159184	-73.681384195778179	0	0
-8.6560587594400165	-60.382378915651223	0	0
8.6560587594400165	-60.382378915651223	0	0
6.3968791902604245	-61.990952864053654	0	0
9.8666843603541672	-61.534111191283586	0	0
6.0533858142789736	-72.787408875638491	0	0
12.992996154466459	-71.873725530098355	0	0
9.6589382242815383	-73.361595024839133	0	0
7.2300746052159184	-73.681384195778179	0	0
12.087801843347158	-73.041805853900087	0	0
7.2681366914025194	-60.565115584759248	0	0
23.990396682531344	-56.088047423630726	0	0
22.224409434412195	-58.226649758864141	0	0
25.457946162125388	-56.887257747725442	0	0
24.687046453052318	-68.744774769411379	0	0
31.154119908478698	-66.065990747133981	0	0
28.318573949789577	-68.366205100221748	0	0
26.055098240390343	-69.303779508018835	0	0
30.582049659188812	-67.428630692424662	0	0
22.696981991446069	-56.6238042280862	0	0
37.689789945819264	-47.968344839418535	0	0
36.53746709204065	-50.491167915826011	0	0
39.314199424677078	-48.360503126030565	0	0
41.638497114070837	-60.013633643839228	0	0
47.191961779343679	-55.752304064248349	0	0
45.048341269960765	-58.708055032884332	0	0
43.104628637115269	-60.199520385741138	0	0
46.992053902806262	-57.216589680027525	0	0
36.579097012764699	-48.820610755336716	0	0
48.820610755336716	-36.579097012764699	0	0
48.360503126030565	-39.314199424677078	0	0
50.491167915826011	-36.53746709204065	0	0
55.752304064248349	-47.191961779343679	0	0
60.013633643839228	-41.638497114070837	0	0
58.708055032884332	-45.048341269960765	0	0
57.216589680027525	-46.992053902806262	0	0
60.199520385741138	-43.104628637115269	0	0
47.968344839418535	-37.689789945819264	0	0
56.6238042280862	-22.696981991446069	0	0
56.887257747725442	-25.457946162125388	0	0
58.226649758864141	-22.224409434412195	0	0
66.065990747133981	-31.154119908478698	0	0
68.744774769411379	-24.687046453052318	0	0
68.366205100221748	-28.318573949789577	0	0
67.428630692424662	-30.582049659188812	0	0
69.303779508018835	-26.055098240390343	0	0
56.088047423630726	-23.990396682531344	0	0
60.565115584759248	-7.2681366914025194	0	0
61.534111191283586	-9.8666843603541672	0	0
61.990952864053654	-6.3968791902604245	0	0
71.873725530098355	-12.992996154466459	0	0
72.787408875638491	-6.0533858142789736	0	0
73.361595024839133	-9.6589382242815383	0	0
73.041805853900087	-12.087801843347158	0	0
73.681384195778179	-7.2300746052159184	0	0
60.382378915651223	-8.6560587594400165	0	0
60.382378915651223	8.6560587594400165	0	0
61.990952864053654	6.3968791902604245	0	0
61.534111191283586	9.8666843603541672	0	0
72.787408875638491	6.0533858142789736	0	0
71.873725530098355	12.992996154466459	0	0
73.361595024839133	9.6589382242815383	0	0
73.681384195778179	7.2300746052159184	0	0
73.041805853900087	12.087801843347158	0	0
60.565115584759248	7.2681366914025194	0	0
56.088047423630726	23.990396682531344	0	0
58.226649758864141	22.224409434412195	0	0
56.887257747725442	25.457946162125388	0	0
68.744774769411379	24.687046453052318	0	0
66.065990747133981	31.154119908478698	0	0
68.366205100221748	28.318573949789577	0	0
69.303779508018835	26.055098240390343	0	0
67.428630692424662	30.582049659188812	0	0
56.6238042280862	22.696981991446069	0	0
47.968344839418535	37.689789945819264	0	0
50.491167915826011	36.53746709204065	0	0
48.360503126030565	39.314199424677078	0	0
60.013633643839228	41.638497114070837	0	0
55.752304064248349	47.191961779343679	0	0
58.708055032884332	45.048341269960765	0	0
60.199520385741138	43.104628637115269	0	0
57.216589680027525	46.992053902806262	0	0
48.820610755336716	36.579097012764699	0	0
36.579097012764699	48.820610755336716	0	0
39.314199424677078	48.360503126030565	0	0
36.53746709204065	50.491167915826011	0	0
47.191961779343679	55.752304064248349	0	0
41.638497114070837	60.013633643839228	0	0
45.048341269960765	58.708055032884332	0	0
46.992053902806262	57.216589680027525	0	0
43.104628637115269	60.199520385741138	0	0
37.689789945819264	47.968344839418535	0	0
22.696981991446069	56.6238042280862	0	0
25.457946162125388	56.887257747725442	0	0
22.224409434412195	58.226649758864141	0	0
31.154119908478698	66.065990747133981	0	0
24.687046453052318	68.744774769411379	0	0
28.318573949789577	68.366205100221748	0	0
30.582049659188812	67.428630692424662	0	0
26.055098240390343	69.303779508018835	0	0
23.990396682531344	56.088047423630726	0	0
7.2681366914025194	60.565115584759248	0	0
9.8666843603541672	61.534111191283586	0	0
6.3968791902604245	61.990952864053654	0	0
12.992996154466459	71.873725530098355	0	0
6.0533858142789736	72.787408875638491	0	0
9.6589382242815383	73.361595024839133	0	0
12.087801843347158	73.041805853900087	0	0
7.2300746052159184	73.681384195778179	0	0
8.6560587594400165	60.382378915651223	0	0
60	0	0	0
-60	0	0	0
84	0	0	0
-84	0	0	0
0	45.992782664376946	0	0
0.89985879125954882	46.492704215076699	0	0
-0.89985879125954882	46.492704215076699	0	0
2.9995293041984965	51.325279205174276	0	0
-2.9995293041984965	51.325279205174276	0	0
0	57.990899881170932	0	0
0.74988232604962413	57.990899881170932	0	0
-0.74988232604962413	57.990899881170932	0	0
-0.99984310139949883	53.324965407973274	0	0
0.99984310139949883	53.324965407973274	0	0
-0.99984310139949883	54.241488250922814	0	0
0.99984310139949883	54.241488250922814	0	0
-12.410651472149725	44.292893015339125	0	0
-11.678949776981673	45.017154598656603	0	0
-13.412149938451465	44.531520410615968	0	0
-10.96090064907975	50.237691214576614	0	0
-16.738234520645722	48.618910587774479	0	0
-15.648212725754	55.847560758471069	0	0
-14.926045991808254	56.049908336821339	0	0
-16.370379459699748	55.645213180120798	0	0
-15.352050105724445	51.084282087230513	0	0
-13.426272148535787	51.623875629497896	0	0
-15.599363812596993	51.966930317608643	0	0
-13.673585855408335	52.506523859876026	0	0
-23.900861153157138	39.30313657874779	0	0
-23.391678710889867	40.197970129339431	0	0
-24.929627533536522	39.262719040737629	0	0
-24.108727452010644	45.418773793518653	0	0
-29.235223527499489	42.301270164845988	0	0
-30.135868410502479	49.556128729725472	0	0
-29.495056401066375	49.945816683309559	0	0
-30.776680419938582	49.166440776141386	0	0
-28.565559378560764	45.049270066233156	0	0
-26.856727353397815	46.088437942457382	0	0
-29.041844655163533	45.832484744432833	0	0
-27.333012630000585	46.871652620657059	0	0
-33.618433342929656	31.397434975666791	0	0
-33.369553455828886	32.396463399503091	0	0
-34.59814873748541	31.080959486084108	0	0
-35.468563913262074	37.230223814051108	0	0
-39.56388151878383	32.845210769321149	0	0
-42.388459432389567	39.588070186710297	0	0
-41.876544731699347	40.136196817301538	0	0
-42.900374133079787	39.039943556119056	0	0
-39.660446665186562	35.671987652738387	0	0
-38.295340796679305	37.133658667648369	0	0
-40.330379213686967	36.297661175804208	0	0
-38.96527334517971	37.75933219071419	0	0
-40.842441499033654	21.162991570625586	0	0
-40.872322549815252	22.192115334417824	0	0
-41.700439611274518	20.593932840977377	0	0
-44.197601932721398	26.280309241794512	0	0
-46.957992137585606	20.953034263659688	0	0
-51.496991455303302	26.683771980353995	0	0
-51.151942679695274	27.349681352620848	0	0
-51.84204023091133	26.017862608087142	0	0
-47.813620395342475	23.648922657992699	0	0
-46.893490327054401	25.424680984037643	0	0
-48.627509628113074	24.070648939291395	0	0
-47.707379559825	25.846407265336339	0	0
-45.035805254422904	9.3589766003405543	0	0
-45.342214465007793	10.341839927061226	0	0
-45.708435288499381	8.5795692866707647	0	0
-49.646979853464224	13.381193070596026	0	0
-50.867715931769517	7.5069576026278213	0	0
-56.784276190359314	11.800448756951134	0	0
-56.631684180571156	12.53472819044716	0	0
-56.936868200147472	11.066169323455108	0	0
-52.418882394990483	9.8719481180523196	0	0
-52.011970368888718	11.830026607375054	0	0
-53.316335035930067	10.058449463348961	0	0
-52.909423009828302	12.016527952671694	0	0
-45.887916618653456	-3.139151014774872	0	0
-46.448116493058329	-2.2754651571792053	0	0
-46.325280149001919	-4.0710792857352098	0	0
-51.412982017431936	-0.51042033845977652	0	0
-51.003527537243905	-6.4958007669797926	0	0
-57.85867747569349	-3.9580599751509253	0	0
-57.90985928571699	-3.2098874215859232	0	0
-57.80749566566999	-4.706232528715927	0	0
-53.135139173479921	-4.6371587842024633	0	0
-53.271624000209265	-2.642031974695791	0	0
-54.049572294503811	-4.6997143297867447	0	0
-54.186057121233155	-2.7045875202800724	0	0
-43.343200691377035	-15.404462151870886	0	0
-44.115714088819914	-14.723882813907759	0	0
-43.51293078722496	-16.419921101831207	0	0
-49.373138158252914	-14.363756269316836	0	0
-47.363860486269758	-20.017217229061668	0	0
-54.650122610866696	-19.423017495837204	0	0
-54.901282319864592	-18.716334875869101	0	0
-54.398962901868799	-20.129700115805306	0	0
-49.918106696845747	-18.802489466474444	0	0
-50.587865920840137	-16.918002479892831	0	0
-50.781829899028985	-19.109462444138536	0	0
-51.451589123023375	-17.224975457556923	0	0
-37.580531118511352	-26.527293235252259	0	0
-38.508027411358803	-26.080362118099341	0	0
-37.470002893457625	-27.550904640128049	0	0
-43.66773500991318	-27.152017233059752	0	0
-40.207653283575929	-32.053825639822101	0	0
-47.384147932036051	-33.44745668792676	0	0
-47.816658147828207	-32.834730637081464	0	0
-46.951637716243894	-34.060182738772056	0	0
-42.994949994609129	-31.573250079680399	0	0
-44.148310570054875	-29.939313944092952	0	0
-43.743837390086711	-32.101873676759702	0	0
-44.897197965532456	-30.467937541172255	0	0
-29.030041358781556	-35.682676229859418	0	0
-30.043724604135129	-35.502552336207813	0	0
-28.64744596905367	-36.638510476334048	0	0
-34.722974313920979	-37.926534544705191	0	0
-30.068712196982794	-41.713061678459312	0	0
-36.603095626289793	-44.991200463735787	0	0
-37.184878390907066	-44.51788457201652	0	0
-36.02131286167252	-45.464516355455054	0	0
-32.882308613880227	-42.002306672853997	0	0
-34.433729319526293	-40.740130961602624	0	0
-33.460805814870433	-42.713374496275108	0	0
-35.012226520516499	-41.451198785023735	0	0
-18.326450091696355	-42.191239854198543	0	0
-19.351131415927377	-42.291279307341419	0	0
-17.700169856415258	-43.008401267451283	0	0
-23.202858498616127	-45.887774541458761	0	0
-17.699653300242407	-48.27818107515828	0	0
-23.107263159095403	-53.197650250945991	0	0
-23.79516380889212	-52.898849434233547	0	0
-22.419362509298686	-53.496451067658434	0	0
-20.330857210933488	-49.31578063004968	0	0
-22.16525894372473	-48.518978452149845	0	0
-20.696058209137579	-50.156548090912331	0	0
-22.530459941928822	-49.359745913012496	0	0
-6.2636658584252674	-45.568358988281091	0	0
-7.2233040327440854	-45.941117253967128	0	0
-5.4401943332026512	-46.186217222340296	0	0
-9.9617374861740657	-50.443147039633779	0	0
-4.0180384877026185	-51.260146934210987	0	0
-7.8976656475796849	-57.455756985223985	0	0
-8.6406280223886149	-57.353631998401831	0	0
-7.154703272770754	-57.55788197204614	0	0
-6.2716047853855041	-52.969046635509066	0	0
-8.252837784875986	-52.696713337316659	0	0
-6.3964242137236882	-53.877111760275533	0	0
-8.3776572132141709	-53.604778462083125	0	0
6.2636658584252674	-45.568358988281091	0	0
5.4401943332026512	-46.186217222340296	0	0
7.2233040327440854	-45.941117253967128	0	0
4.0180384877026185	-51.260146934210987	0	0
9.9617374861740657	-50.443147039633779	0	0
7.8976656475796849	-57.455756985223985	0	0
7.154703272770754	-57.55788197204614	0	0
8.6406280223886149	-57.353631998401831	0	0
8.252837784875986	-52.696713337316659	0	0
6.2716047853855041	-52.969046635509066	0	0
8.3776572132141709	-53.604778462083125	0	0
6.3964242137236882	-53.877111760275533	0	0
18.326450091696355	-42.19123985419855	0	0
17.700169856415258	-43.008401267451298	0	0
19.351131415927377	-42.291279307341433	0	0
17.699653300242403	-48.278181075158294	0	0
23.202858498616131	-45.887774541458775	0	0
23.107263159095403	-53.197650250945998	0	0
22.419362509298686	-53.496451067658441	0	0
23.79516380889212	-52.898849434233554	0	0
22.16525894372473	-48.518978452149852	0	0
20.330857210933488	-49.315780630049687	0	0
22.530459941928822	-49.359745913012503	0	0
20.696058209137579	-50.156548090912338	0	0
29.030041358781556	-35.682676229859418	0	0
28.64744596905367	-36.638510476334048	0	0
30.043724604135129	-35.502552336207813	0	0
30.068712196982794	-41.713061678459312	0	0
34.722974313920979	-37.926534544705191	0	0
36.603095626289793	-44.991200463735787	0	0
36.02131286167252	-45.464516355455054	0	0
37.184878390907066	-44.51788457201652	0	0
34.433729319526293	-40.740130961602624	0	0
32.882308613880227	-42.002306672853997	0	0
35.012226520516499	-41.451198785023735	0	0
33.460805814870433	-42.713374496275108	0	0
37.580531118511367	-26.527293235252259	0	0
37.470002893457639	-27.550904640128049	0	0
38.508027411358817	-26.080362118099341	0	0
40.207653283575944	-32.053825639822101	0	0
43.667735009913194	-27.152017233059752	0	0
47.384147932036072	-33.44745668792676	0	0
46.951637716243916	-34.060182738772056	0	0
47.816658147828228	-32.834730637081464	0	0
44.148310570054889	-29.939313944092952	0	0
42.994949994609144	-31.573250079680399	0	0
44.89719796553247	-30.467937541172255	0	0
43.743837390086725	-32.101873676759702	0	0
43.343200691377035	-15.404462151870867	0	0
43.51293078722496	-16.419921101831186	0	0
44.115714088819914	-14.723882813907737	0	0
47.363860486269758	-20.017217229061647	0	0
49.373138158252914	-14.363756269316815	0	0
54.650122610866696	-19.423017495837179	0	0
54.398962901868799	-20.129700115805282	0	0
54.901282319864592	-18.716334875869077	0	0
50.587865920840137	-16.918002479892806	0	0
49.918106696845747	-18.80248946647442	0	0
51.451589123023375	-17.224975457556898	0	0
50.781829899028985	-19.109462444138511	0	0
45.887916618653456	-3.139151014774872	0	0
46.325280149001919	-4.0710792857352098	0	0
46.448116493058329	-2.2754651571792053	0	0
51.003527537243905	-6.4958007669797926	0	0
51.412982017431936	-0.51042033845977652	0	0
57.85867747569349	-3.9580599751509253	0	0
57.80749566566999	-4.706232528715927	0	0
57.90985928571699	-3.2098874215859232	0	0
53.271624000209265	-2.642031974695791	0	0
53.135139173479921	-4.6371587842024633	0	0
54.186057121233155	-2.7045875202800724	0	0
54.049572294503811	-4.6997143297867447	0	0
45.035805254422897	9.3589766003405632	0	0
45.708435288499381	8.5795692866707736	0	0
45.342214465007793	10.341839927061235	0	0
50.86771593176951	7.506957602627832	0	0
49.646979853464217	13.381193070596037	0	0
56.784276190359307	11.800448756951145	0	0
56.936868200147465	11.066169323455119	0	0
56.631684180571149	12.53472819044717	0	0
52.011970368888711	11.830026607375064	0	0
52.418882394990476	9.8719481180523303	0	0
52.909423009828295	12.016527952671705	0	0
53.316335035930059	10.058449463348971	0	0
40.842441499033662	21.162991570625568	0	0
41.700439611274533	20.593932840977363	0	0
40.872322549815266	22.19211533441781	0	0
46.957992137585613	20.953034263659674	0	0
44.197601932721405	26.280309241794498	0	0
51.496991455303316	26.683771980353978	0	0
51.842040230911344	26.017862608087125	0	0
51.151942679695289	27.349681352620831	0	0
46.893490327054415	25.424680984037625	0	0
47.81362039534249	23.648922657992681	0	0
47.707379559825014	25.846407265336321	0	0
48.627509628113089	24.070648939291377	0	0
33.618433342929656	31.397434975666791	0	0
34.59814873748541	31.080959486084108	0	0
33.369553455828886	32.396463399503091	0	0
39.56388151878383	32.845210769321149	0	0
35.468563913262074	37.230223814051108	0	0
42.388459432389567	39.588070186710297	0	0
42.900374133079787	39.039943556119056	0	0
41.876544731699347	40.136196817301538	0	0
38.295340796679305	37.133658667648369	0	0
39.660446665186562	35.671987652738387	0	0
38.96527334517971	37.75933219071419	0	0
40.330379213686967	36.297661175804208	0	0
23.900861153157127	39.303136578747797	0	0
24.929627533536511	39.262719040737629	0	0
23.391678710889856	40.197970129339431	0	0
29.235223527499478	42.301270164845995	0	0
24.108727452010633	45.41877379351866	0	0
30.135868410502464	49.556128729725479	0	0
30.776680419938568	49.166440776141393	0	0
29.495056401066361	49.945816683309566	0	0
26.856727353397805	46.088437942457382	0	0
28.565559378560753	45.049270066233156	0	0
27.333012630000571	46.871652620657066	0	0
29.041844655163519	45.83248474443284	0	0
12.410651472149743	44.292893015339125	0	0
13.412149938451483	44.531520410615961	0	0
11.678949776981691	45.01715459865661	0	0
16.738234520645744	48.618910587774479	0	0
10.96090064907977	50.237691214576614	0	0
15.648212725754023	55.847560758471069	0	0
16.37037945969977	55.645213180120798	0	0
14.926045991808277	56.049908336821339	0	0
13.426272148535809	51.623875629497896	0	0
15.352050105724466	51.084282087230513	0	0
13.673585855408357	52.506523859876026	0	0
15.599363812597014	51.966930317608643	0	0
59	0	0	0
-59	0	0	0
15.333333333333332	0	0	0
-15.333333333333332	0	0	0
[NumSegments] = 258
7	5	-1	0	0	0
5	6	-1	0	0	0
3	1	-1	0	0	0
4	2	-1	0	0	0
8	0	-1	0	0	0
16	14	-1	0	0	0
14	15	-1	0	0	0
12	10	-1	0	0	0
13	11	-1	0	0	0
17	9	-1	0	0	0
25	23	-1	0	0	0
23	24	-1	0	0	0
21	19	-1	0	0	0
22	20	-1	0	0	0
26	18	-1	0	0	0
34	32	-1	0	0	0
32	33	-1	0	0	0
30	28	-1	0	0	0
31	29	-1	0	0	0
35	27	-1	0	0	0
43	41	-1	0	0	0
41	42	-1	0	0	0
39	37	-1	0	0	0
40	38	-1	0	0	0
44	36	-1	0	0	0
52	50	-1	0	0	0
50	51	-1	0	0	0
48	46	-1	0	0	0
49	47	-1	0	0	0
53	45	-1	0	0	0
61	59	-1	0	0	0
59	60	-1	0	0	0
57	55	-1	0	0	0
58	56	-1	0	0	0
62	54	-1	0	0	0
70	68	-1	0	0	0
68	69	-1	0	0	0
66	64	-1	0	0	0
67	65	-1	0	0	0
71	63	-1	0	0	0
79	77	-1	0	0	0
77	78	-1	0	0	0
75	73	-1	0	0	0
76	74	-1	0	0	0
80	72	-1	0	0	0
88	86	-1	0	0	0
86	87	-1	0	0	0
84	82	-1	0	0	0
85	83	-1	0	0	0
89	81	-1	0	0	0
97	95	-1	0	0	0
95	96	-1	0	0	0
93	91	-1	0	0	0
94	92	-1	0	0	0
98	90	-1	0	0	0
106	104	-1	0	0	0
104	105	-1	0	0	0
102	100	-1	0	0	0
103	101	-1	0	0	0
107	99	-1	0	0	0
115	113	-1	0	0	0
113	114	-1	0	0	0
111	109	-1	0	0	0
112	110	-1	0	0	0
116	108	-1	0	0	0
124	122	-1	0	0	0
122	123	-1	0	0	0
120	118	-1	0	0	0
121	119	-1	0	0	0
125	117	-1	0	0	0
133	131	-1	0	0	0
131	132	-1	0	0	0
129	127	-1	0	0	0
130	128	-1	0	0	0
134	126	-1	0	0	0
142	140	-1	0	0	0
140	141	-1	0	0	0
138	136	-1	0	0	0
139	137	-1	0	0	0
143	135	-1	0	0	0
151	149	-1	0	0	0
149	150	-1	0	0	0
147	145	-1	0	0	0
148	146	-1	0	0	0
152	144	-1	0	0	0
160	158	-1	0	0	0
158	159	-1	0	0	0
156	154	-1	0	0	0
157	155	-1	0	0	0
161	153	-1	0	0	0
169	167	-1	0	0	0
167	168	-1	0	0	0
165	163	-1	0	0	0
166	164	-1	0	0	0
170	162	-1	0	0	0
178	176	-1	0	0	0
176	177	-1	0	0	0
174	172	-1	0	0	0
175	173	-1	0	0	0
179	171	-1	0	0	0
187	185	-1	0	0	0
185	186	-1	0	0	0
183	181	-1	0	0	0
184	182	-1	0	0	0
188	180	-1	0	0	0
196	194	-1	0	0	0
194	195	-1	0	0	0
192	190	-1	0	0	0
193	191	-1	0	0	0
197	189	-1	0	0	0
205	203	-1	0	0	0
203	204	-1	0	0	0
201	199	-1	0	0	0
202	200	-1	0	0	0
206	198	-1	0	0	0
214	212	-1	0	0	0
212	213	-1	0	0	0
210	208	-1	0	0	0
211	209	-1	0	0	0
215	207	-1	0	0	0
227	225	-1	0	0	0
225	226	-1	0	0	0
231	229	-1	0	0	0
228	230	-1	0	0	0
223	221	-1	0	0	0
224	222	-1	0	0	0
239	237	-1	0	0	0
237	238	-1	0	0	0
243	241	-1	0	0	0
240	242	-1	0	0	0
235	233	-1	0	0	0
236	234	-1	0	0	0
251	249	-1	0	0	0
249	250	-1	0	0	0
255	253	-1	0	0	0
252	254	-1	0	0	0
247	245	-1	0	0	0
248	246	-1	0	0	0
263	261	-1	0	0	0
261	262	-1	0	0	0
267	265	-1	0	0	0
264	266	-1	0	0	0
259	257	-1	0	0	0
260	258	-1	0	0	0
275	273	-1	0	0	0
273	274	-1	0	0	0
279	277	-1	0	0	0
276	278	-1	0	0	0
271	269	-1	0	0	0
272	270	-1	0	0	0
287	285	-1	0	0	0
285	286	-1	0	0	0
291	289	-1	0	0	0
288	290	-1	0	0	0
283	281	-1	0	0	0
284	282	-1	0	0	0
299	297	-1	0	0	0
297	298	-1	0	0	0
303	301	-1	0	0	0
300	302	-1	0	0	0
295	293	-1	0	0	0
296	294	-1	0	0	0
311	309	-1	0	0	0
309	310	-1	0	0	0
315	313	-1	0	0	0
312	314	-1	0	0	0
307	305	-1	0	0	0
308	306	-1	0	0	0
323	321	-1	0	0	0
321	322	-1	0	0	0
327	325	-1	0	0	0
324	326	-1	0	0	0
319	317	-1	0	0	0
320	318	-1	0	0	0
335	333	-1	0	0	0
333	334	-1	0	0	0
339	337	-1	0	0	0
336	338	-1	0	0	0
331	329	-1	0	0	0
332	330	-1	0	0	0
347	345	-1	0	0	0
345	346	-1	0	0	0
351	349	-1	0	0	0
348	350	-1	0	0	0
343	341	-1	0	0	0
344	342	-1	0	0	0
359	357	-1	0	0	0
357	358	-1	0	0	0
363	361	-1	0	0	0
360	362	-1	0	0	0
355	353	-1	0	0	0
356	354	-1	0	0	0
371	369	-1	0	0	0
369	370	-1	0	0	0
375	373	-1	0	0	0
372	374	-1	0	0	0
367	365	-1	0	0	0
368	366	-1	0	0	0
383	381	-1	0	0	0
381	382	-1	0	0	0
387	385	-1	0	0	0
384	386	-1	0	0	0
379	377	-1	0	0	0
380	378	-1	0	0	0
395	393	-1	0	0	0
393	394	-1	0	0	0
399	397	-1	0	0	0
396	398	-1	0	0	0
391	389	-1	0	0	0
392	390	-1	0	0	0
407	405	-1	0	0	0
405	406	-1	0	0	0
411	409	-1	0	0	0
408	410	-1	0	0	0
403	401	-1	0	0	0
404	402	-1	0	0	0
419	417	-1	0	0	0
417	418	-1	0	0	0
423	421	-1	0	0	0
420	422	-1	0	0	0
415	413	-1	0	0	0
416	414	-1	0	0	0
431	429	-1	0	0	0
429	430	-1	0	0	0
435	433	-1	0	0	0
432	434	-1	0	0	0
427	425	-1	0	0	0
428	426	-1	0	0	0
443	441	-1	0	0	0
441	442	-1	0	0	0
447	445	-1	0	0	0
444	446	-1	0	0	0
439	437	-1	0	0	0
440	438	-1	0	0	0
455	453	-1	0	0	0
453	454	-1	0	0	0
459	457	-1	0	0	0
456	458	-1	0	0	0
451	449	-1	0	0	0
452	450	-1	0	0	0
467	465	-1	0	0	0
465	466	-1	0	0	0
471	469	-1	0	0	0
468	470	-1	0	0	0
463	461	-1	0	0	0
464	462	-1	0	0	0
479	477	-1	0	0	0
477	478	-1	0	0	0
483	481	-1	0	0	0
480	482	-1	0	0	0
475	473	-1	0	0	0
476	474	-1	0	0	0
491	489	-1	0	0	0
489	490	-1	0	0	0
495	493	-1	0	0	0
492	494	-1	0	0	0
487	485	-1	0	0	0
488	486	-1	0	0	0
[NumArcSegments] = 242
7	4	80	1	0	0	0	1
3	6	80	1	0	0	0	1
2	0	70	1	0	0	0	1
8	1	70	1	0	0	0	1
16	13	80	1	0	0	0	1
12	15	80	1	0	0	0	1
11	9	70	1	0	0	0	1
17	10	70	1	0	0	0	1
25	22	80	1	0	0	0	1
21	24	80	1	0	0	0	1
20	18	70	1	0	0	0	1
26	19	70	1	0	0	0	1
34	31	80	1	0	0	0	1