[Format]      =  4.0
[Frequency]   =  50
[Precision]   =  1e-008
[MinAngle]    =  30
[DoSmartMesh] =  1
[Depth]       =  1
[LengthUnits] =  centimeters
[ProblemType] =  planar
[Coordinates] =  cartesian
[ACSolver]    =  0
[PrevType]    =  0
[PrevSoln]    =  ""
[Comment]     =  "Add comments here."
[PointProps]   = 0
[BdryProps]   = 1
  <BeginBdry>
    <BdryName> = "A1"
    <BdryType> = 0
    <A_0> = 0
    <A_1> = 0
    <A_2> = 0
    <Phi> = 0
    <c0> = 0
    <c0i> = 0
    <c1> = 0
    <c1i> = 0
    <Mu_ssd> = 0
    <Sigma_ssd> = 0
    <innerangle> = 0
    <outerangle> = 0
  <EndBdry>
[BlockProps]  = 6
  <BeginBlock>
    <BlockName> = "M-19 Steel"
    <Mu_x> = 5000
    <Mu_y> = 5000
    <H_c> = 0
    <H_cAngle> = 0
    <J_re> = 0
    <J_im> = 0
    <Sigma> = 0
    <d_lam> = 0
    <Phi_h> = 0
    <Phi_hx> = 0
    <Phi_hy> = 0
    <LamType> = 0
    <LamFill> = 1
    <NStrands> = 0
    <WireD> = 0
    <BHPoints> = 0
  <EndBlock>
  <BeginBlock>
    <BlockName> = "Copper"
    <Mu_x> = 58
    <Mu_y> = 58
    <H_c> = 0
    <H_cAngle> = 0
    <J_re> = 0
    <J_im> = 0
    <Sigma> = 0
    <d_lam> = 0
    <Phi_h> = 0
    <Phi_hx> = 0
    <Phi_hy> = 0
    <LamType> = 0
    <LamFill> = 1
    <NStrands> = 0
    <WireD> = 0
    <BHPoints> = 0
  <EndBlock>
  <BeginBlock>
    <BlockName> = "Aluminum"
    <Mu_x> = 37
    <Mu_y> = 37
    <H_c> = 0
    <H_cAngle> = 0
    <J_re> = 0
    <J_im> = 0
    <Sigma> = 0
    <d_lam> = 0
    <Phi_h> = 0
    <Phi_hx> = 0
    <Phi_hy> = 0
    <LamType> = 0
    <LamFill> = 1
    <NStrands> = 0
    <WireD> = 0
    <BHPoints> = 0
  <EndBlock>
  <BeginBlock>
    <BlockName> = "Air"
    <Mu_x> = 1
    <Mu_y> = 1
    <H_c> = 1
    <H_cAngle> = 0
    <J_re> = 0
    <J_im> = 0
    <Sigma> = 0
    <d_lam> = 0
    <Phi_h> = 0
    <Phi_hx> = 0
    <Phi_hy> = 0
    <LamType> = 0
    <LamFill> = 1
    <NStrands> = 0
    <WireD> = 0
    <BHPoints> = 0
  <EndBlock>
  <BeginBlock>
    <BlockName> = "M-19 Steel"
    <Mu_x> = 5000
    <Mu_y> = 5000
    <H_c> = 0
    <H_cAngle> = 0
    <J_re> = 0
    <J_im> = 0
    <Sigma> = 0
    <d_lam> = 0
    <Phi_h> = 0
    <Phi_hx> = 0
    <Phi_hy> = 0
    <LamType> = 0
    <LamFill> = 1
    <NStrands> = 0
    <WireD> = 0
    <BHPoints> = 0
  <EndBlock>
  <BeginBlock>
    <BlockName> = "Air"
    <Mu_x> = 1
    <Mu_y> = 1
    <H_c> = 0
    <H_cAngle> = 0
    <J_re> = 0
    <J_im> = 0
    <Sigma> = 0
    <d_lam> = 0
    <Phi_h> = 0
    <Phi_hx> = 0
    <Phi_hy> = 0
    <LamType> = 0
    <LamFill> = 1
    <NStrands> = 0
    <WireD> = 0
    <BHPoints> = 0
  <EndBlock>
[CircuitProps]  = 6
  <BeginCircuit>
    <CircuitName> = "A"
    <TotalAmps_re> = 1
    <TotalAmps_im> = 0
    <CircuitType> = 1
  <EndCircuit>
  <BeginCircuit>
    <CircuitName> = "C"
    <TotalAmps_re> = 1
    <TotalAmps_im> = 0
    <CircuitType> = 1
  <EndCircuit>
  <BeginCircuit>
    <CircuitName> = "B"
    <TotalAmps_re> = 1
    <TotalAmps_im> = 0
    <CircuitType> = 1
  <EndCircuit>
  <BeginCircuit>
    <CircuitName> = "A1"
    <TotalAmps_re> = -1
    <TotalAmps_im> = -0
    <CircuitType> = 1
  <EndCircuit>
  <BeginCircuit>
    <CircuitName> = "C1"
    <TotalAmps_re> = -1
    <TotalAmps_im> = -0
    <CircuitType> = 1
  <EndCircuit>
  <BeginCircuit>
    <CircuitName> = "B1"
    <TotalAmps_re> = -1
    <TotalAmps_im> = -0
    <CircuitType> = 1
  <EndCircuit>
[NumPoints] = 408
-8.6560587594400165	60.382378915651223	0	0
-6.3968791902604245	61.990952864053654	0	0
-9.8666843603541672	61.534111191283586	0	0
-6.0533858142789736	72.787408875638491	0	0
-12.992996154466459	71.873725530098355	0	0
-9.6589382242815383	73.361595024839133	0	0
-7.2300746052159184	73.681384195778179	0	0
-12.087801843347158	73.041805853900087	0	0
-7.2681366914025194	60.565115584759248	0	0
-23.990396682531344	56.088047423630726	0	0
-22.224409434412195	58.226649758864141	0	0
-25.457946162125388	56.887257747725442	0	0
-24.687046453052318	68.744774769411379	0	0
-31.154119908478698	66.065990747133981	0	0
-28.318573949789577	68.366205100221748	0	0
-26.055098240390343	69.303779508018835	0	0
-30.582049659188812	67.428630692424662	0	0
-22.696981991446069	56.6238042280862	0	0
-37.689789945819264	47.968344839418535	0	0
-36.53746709204065	50.491167915826011	0	0
-39.314199424677078	48.360503126030565	0	0
-41.638497114070837	60.013633643839228	0	0
-47.191961779343679	55.752304064248349	0	0
-45.048341269960765	58.708055032884332	0	0
-43.104628637115269	60.199520385741138	0	0
-46.992053902806262	57.216589680027525	0	0
-36.579097012764699	48.820610755336716	0	0
-48.820610755336716	36.579097012764699	0	0
-48.360503126030565	39.314199424677078	0	0
-50.491167915826011	36.53746709204065	0	0
-55.752304064248349	47.191961779343679	0	0
-60.013633643839228	41.638497114070837	0	0
-58.708055032884332	45.048341269960765	0	0
-57.216589680027525	46.992053902806262	0	0
-60.199520385741138	43.104628637115269	0	0
-47.968344839418535	37.689789945819264	0	0
-56.6238042280862	22.696981991446069	0	0
-56.887257747725442	25.457946162125388	0	0
-58.226649758864141	22.224409434412195	0	0
-66.065990747133981	31.154119908478698	0	0
-68.744774769411379	24.687046453052318	0	0
-68.366205100221748	28.318573949789577	0	0
-67.428630692424662	30.582049659188812	0	0
-69.303779508018835	26.055098240390343	0	0
-56.088047423630726	23.990396682531344	0	0
-60.565115584759248	7.2681366914025194	0	0
-61.534111191283586	9.8666843603541672	0	0
-61.990952864053654	6.3968791902604245	0	0
-71.873725530098355	12.992996154466459	0	0
-72.787408875638491	6.0533858142789736	0	0
-73.361595024839133	9.6589382242815383	0	0
-73.041805853900087	12.087801843347158	0	0
-73.681384195778179	7.2300746052159184	0	0
-60.382378915651223	8.6560587594400165	0	0
-60.382378915651223	-8.6560587594400165	0	0
-61.990952864053654	-6.3968791902604245	0	0
-61.534111191283586	-9.8666843603541672	0	0
-72.787408875638491	-6.0533858142789736	0	0
-71.873725530098355	-12.992996154466459	0	0
-73.361595024839133	-9.6589382242815383	0	0
-73.681384195778179	-7.2300746052159184	0	0
-73.041805853900087	-12.087801843347158	0	0
-60.565115584759248	-7.2681366914025194	0	0
-56.088047423630726	-23.990396682531344	0	0
-58.226649758864141	-22.224409434412195	0	0
-56.887257747725442	-25.457946162125388	0	0
-68.744774769411379	-24.687046453052318	0	0
-66.065990747133981	-31.154119908478698	0	0
-68.366205100221748	-28.318573949789577	0	0
-69.303779508018835	-26.055098240390343	0	0
-67.428630692424662	-30.582049659188812	0	0
-56.6238042280862	-22.696981991446069	0	0
-47.968344839418535	-37.689789945819264	0	0
-50.491167915826011	-36.53746709204065	0	0
-48.360503126030565	-39.314199424677078	0	0
-60.013633643839228	-41.638497114070837	0	0
-55.752304064248349	-47.191961779343679	0	0
-58.708055032884332	-45.048341269960765	0	0
-60.199520385741138	-43.104628637115269	0	0
-57.216589680027525	-46.992053902806262	0	0
-48.820610755336716	-36.579097012764699	0	0
-36.579097012764699	-48.820610755336716	0	0
-39.314199424677078	-48.360503126030565	0	0
-36.53746709204065	-50.491167915826011	0	0
-47.191961779343679	-55.752304064248349	0	0
-41.638497114070837	-60.013633643839228	0	0
-45.048341269960765	-58.708055032884332	0	0
-46.992053902806262	-57.216589680027525	0	0
-43.104628637115269	-60.199520385741138	0	0
-37.689789945819264	-47.968344839418535	0	0
-22.696981991446069	-56.6238042280862	0	0
-25.457946162125388	-56.887257747725442	0	0
-22.224409434412195	-58.226649758864141	0	0
-31.154119908478698	-66.065990747133981	0	0
-24.687046453052318	-68.744774769411379	0	0
-28.318573949789577	-68.366205100221748	0	0
-30.582049659188812	-67.428630692424662	0	0
-26.055098240390343	-69.303779508018835	0	0
-23.990396682531344	-56.088047423630726	0	0
-7.2681366914025194	-60.565115584759248	0	0
-9.8666843603541672	-61.534111191283586	0	0
-6.3968791902604245	-61.990952864053654	0	0
-12.992996154466459	-71.873725530098355	0	0
-6.0533858142789736	-72.787408875638491	0	0
-9.6589382242815383	-73.361595024839133	0	0
-12.087801843347158	-73.041805853900087	0	0
-7.2300746052159184	-73.681384195778179	0	0
-8.6560587594400165	-60.382378915651223	0	0
8.6560587594400165	-60.382378915651223	0	0
6.3968791902604245	-61.990952864053654	0	0
9.8666843603541672	-61.534111191283586	0	0
6.0533858142789736	-72.787408875638491	0	0
12.992996154466459	-71.873725530098355	0	0
9.6589382242815383	-73.361595024839133	0	0
7.2300746052159184	-73.681384195778179	0	0
12.087801843347158	-73.041805853900087	0	0
7.2681366914025194	-60.565115584759248	0	0
23.990396682531344	-56.088047423630726	0	0
22.224409434412195	-58.226649758864141	0	0
25.457946162125388	-56.887257747725442	0	0
24.687046453052318	-68.744774769411379	0	0
31.154119908478698	-66.065990747133981	0	0
28.318573949789577	-68.366205100221748	0	0
26.055098240390343	-69.303779508018835	0	0
30.582049659188812	-67.428630692424662	0	0
22.696981991446069	-56.6238042280862	0	0
37.689789945819264	-47.968344839418535	0	0
36.53746709204065	-50.491167915826011	0	0
39.314199424677078	-48.360503126030565	0	0
41.638497114070837	-60.013633643839228	0	0
47.191961779343679	-55.752304064248349	0	0
45.048341269960765	-58.708055032884332	0	0
43.104628637115269	-60.199520385741138	0	0
46.992053902806262	-57.216589680027525	0	0
36.579097012764699	-48.820610755336716	0	0
48.820610755336716	-36.579097012764699	0	0
48.360503126030565	-39.314199424677078	0	0
50.491167915826011	-36.53746709204065	0	0
55.752304064248349	-47.191961779343679	0	0
60.013633643839228	-41.638497114070837	0	0
58.708055032884332	-45.048341269960765	0	0
57.216589680027525	-46.992053902806262	0	0
60.199520385741138	-43.104628637115269	0	0
47.968344839418535	-37.689789945819264	0	0
56.6238042280862	-22.696981991446069	0	0
56.887257747725442	-25.457946162125388	0	0
58.226649758864141	-22.224409434412195	0	0
66.065990747133981	-31.154119908478698	0	0
68.744774769411379	-24.687046453052318	0	0
68.366205100221748	-28.318573949789577	0	0
67.428630692424662	-30.582049659188812	0	0
69.303779508018835	-26.055098240390343	0	0
56.088047423630726	-23.990396682531344	0	0
60.565115584759248	-7.2681366914025194	0	0
61.534111191283586	-9.8666843603541672	0	0
61.990952864053654	-6.3968791902604245	0	0
71.873725530098355	-12.992996154466459	0	0
72.787408875638491	-6.0533858142789736	0	0
73.361595024839133	-9.6589382242815383	0	0
73.041805853900087	-12.087801843347158	0	0
73.681384195778179	-7.2300746052159184	0	0
60.382378915651223	-8.6560587594400165	0	0
60.382378915651223	8.6560587594400165	0	0
61.990952864053654	6.3968791902604245	0	0
61.534111191283586	9.8666843603541672	0	0
72.787408875638491	6.0533858142789736	0	0
71.873725530098355	12.992996154466459	0	0
73.361595024839133	9.6589382242815383	0	0
73.681384195778179	7.2300746052159184	0	0
73.041805853900087	12.087801843347158	0	0
60.565115584759248	7.2681366914025194	0	0
56.088047423630726	23.990396682531344	0	0
58.226649758864141	22.224409434412195	0	0
56.887257747725442	25.457946162125388	0	0
68.744774769411379	24.687046453052318	0	0
66.065990747133981	31.154119908478698	0	0
68.366205100221748	28.318573949789577	0	0
69.303779508018835	26.055098240390343	0	0
67.428630692424662	30.582049659188812	0	0
56.6238042280862	22.696981991446069	0	0
47.968344839418535	37.689789945819264	0	0
50.491167915826011	36.53746709204065	0	0
48.360503126030565	39.314199424677078	0	0
60.013633643839228	41.638497114070837	0	0
55.752304064248349	47.191961779343679	0	0
58.708055032884332	45.048341269960765	0	0
60.199520385741138	43.104628637115269	0	0
57.216589680027525	46.992053902806262	0	0
48.820610755336716	36.579097012764699	0	0
36.579097012764699	48.820610755336716	0	0
39.314199424677078	48.360503126030565	0	0
36.53746709204065	50.491167915826011	0	0
47.191961779343679	55.752304064248349	0	0
41.638497114070837	60.013633643839228	0	0
45.048341269960765	58.708055032884332	0	0
46.992053902806262	57.216589680027525	0	0
43.104628637115269	60.199520385741138	0	0
37.689789945819264	47.968344839418535	0	0
22.696981991446069	56.6238042280862	0	0
25.457946162125388	56.887257747725442	0	0
22.224409434412195	58.226649758864141	0	0
31.154119908478698	66.065990747133981	0	0
24.687046453052318	68.744774769411379	0	0
28.318573949789577	68.366205100221748	0	0
30.582049659188812	67.428630692424662	0	0
26.055098240390343	69.303779508018835	0	0
23.990396682531344	56.088047423630726	0	0
7.2681366914025194	60.565115584759248	0	0
9.8666843603541672	61.534111191283586	0	0
6.3968791902604245	61.990952864053654	0	0
12.992996154466459	71.873725530098355	0	0
6.0533858142789736	72.787408875638491	0	0
9.6589382242815383	73.361595024839133	0	0
12.087801843347158	73.041805853900087	0	0
7.2300746052159184	73.681384195778179	0	0
8.6560587594400165	60.382378915651223	0	0
60	0	0	0
-60	0	0	0
84	0	0	0
-84	0	0	0
0	45.992782664376946	0	0
0.89985879125954882	46.992625765776445	0	0
-0.89985879125954882	46.992625765776445	0	0
2.9995293041984965	55.991213678371935	0	0
-2.9995293041984965	55.991213678371935	0	0
0	57.990899881170932	0	0
0.74988232604962413	57.990899881170932	0	0
-0.74988232604962413	57.990899881170932	0	0
-12.410651472149725	44.292893015339125	0	0
-11.813848162548519	45.498599087953771	0	0
-13.547048324018311	45.012964899913136	0	0
-12.219952247703635	54.731173114683479	0	0
-17.997286119269607	53.112392487881344	0	0
-15.648212725754	55.847560758471069	0	0
-14.926045991808254	56.049908336821339	0	0
-16.370379459699748	55.645213180120798	0	0
-23.900861153157138	39.30313657874779	0	0
-23.65147067994592	40.625178135630165	0	0
-25.189419502592575	39.689927047028362	0	0
-26.533452496533833	49.406048518898857	0	0
-31.659948572022678	46.288544890226191	0	0
-30.135868410502479	49.556128729725472	0	0
-29.495056401066375	49.945816683309559	0	0
-30.776680419938582	49.166440776141386	0	0
-33.618433342929656	31.397434975666791	0	0
-33.734971209556385	32.737739866629909	0	0
-34.963566491212909	31.422235953210919	0	0
-38.8791296147187	40.415470840568027	0	0
-42.974447220240457	36.030457795838068	0	0
-42.388459432389567	39.588070186710297	0	0
-41.876544731699347	40.136196817301538	0	0
-42.900374133079787	39.039943556119056	0	0
-40.842441499033654	21.162991570625586	0	0
-41.316262131326489	22.422147851489843	0	0
-42.144379192785756	20.823965358049396	0	0
-48.341038026826254	28.42727940113334	0	0
-51.101428231690463	23.100004422998516	0	0
-51.496991455303302	26.683771980353995	0	0
-51.151942679695274	27.349681352620848	0	0
-51.84204023091133	26.017862608087142	0	0
-45.035805254422904	9.3589766003405543	0	0
-45.831734087338475	10.443567933586667	0	0
-46.197954910830063	8.6812972931962058	0	0
-54.21582966188393	14.330654464833474	0	0
-55.436565740189224	8.4564189968652688	0	0
-56.784276190359314	11.800448756951134	0	0
-56.631684180571156	12.53472819044716	0	0
-56.936868200147472	11.066169323455108	0	0
-45.887916618653456	-3.139151014774872	0	0
-46.946898195434997	-2.3095863638615408	0	0
-46.824061851378588	-4.1052004924175458	0	0
-56.068277906280834	-0.82888493416157516	0	0
-55.658823426092802	-6.8142653626815912	0	0
-57.85867747569349	-3.9580599751509253	0	0
-57.90985928571699	-3.2098874215859232	0	0
-57.80749566566999	-4.706232528715927	0	0
-43.343200691377035	-15.404462151870886	0	0
-44.586835835465315	-14.891322619906354	0	0
-43.984052533870361	-16.587360907829805	0	0
-53.770274460276667	-15.926527791970402	0	0
-51.760996788293511	-21.579988751715234	0	0
-54.650122610866696	-19.423017495837204	0	0
-54.901282319864592	-18.716334875869101	0	0
-54.398962901868799	-20.129700115805306	0	0
-37.580531118511352	-26.527293235252259	0	0
-38.916511445255665	-26.368702261960777	0	0
-37.878486927354487	-27.839244783989486	0	0
-47.480252659617221	-29.843191909099833	0	0
-44.020170933279971	-34.745000315862185	0	0
-47.384147932036051	-33.44745668792676	0	0
-47.816658147828207	-32.834730637081464	0	0
-46.951637716243894	-34.060182738772056	0	0
-29.030041358781556	-35.682676229859418	0	0
-30.359268531947972	-35.890407512619333	0	0
-28.962989896866514	-37.026365652745568	0	0
-37.668050973507512	-41.546516191212667	0	0
-33.013788856569327	-45.333043324966788	0	0
-36.603095626289793	-44.991200463735787	0	0
-37.184878390907066	-44.51788457201652	0	0
-36.02131286167252	-45.464516355455054	0	0
-18.326450091696355	-42.191239854198543	0	0
-19.550331960402335	-42.749879740539228	0	0
-17.899370400890216	-43.467001700649092	0	0
-25.062063580382421	-50.168045251304989	0	0
-19.558858382008701	-52.558451785004507	0	0
-23.107263159095403	-53.197650250945991	0	0
-23.79516380889212	-52.898849434233547	0	0
-22.419362509298686	-53.496451067658434	0	0
-6.2636658584252674	-45.568358988281091	0	0
-7.2913873572921855	-46.43642550383975	0	0
-5.5082776577507513	-46.681525472212918	0	0
-10.597181848623006	-55.066024038444901	0	0
-4.6534828501515584	-55.883023933022109	0	0
-7.8976656475796849	-57.455756985223985	0	0
-8.6406280223886149	-57.353631998401831	0	0
-7.154703272770754	-57.55788197204614	0	0
6.2636658584252674	-45.568358988281091	0	0
5.5082776577507513	-46.681525472212918	0	0
7.2913873572921855	-46.43642550383975	0	0
4.6534828501515584	-55.883023933022109	0	0
10.597181848623006	-55.066024038444901	0	0
7.8976656475796849	-57.455756985223985	0	0
7.154703272770754	-57.55788197204614	0	0
8.6406280223886149	-57.353631998401831	0	0
18.326450091696355	-42.19123985419855	0	0
17.899370400890216	-43.467001700649107	0	0
19.550331960402335	-42.749879740539242	0	0
19.558858382008701	-52.558451785004522	0	0
25.062063580382421	-50.168045251305003	0	0
23.107263159095403	-53.197650250945998	0	0
22.419362509298686	-53.496451067658441	0	0
23.79516380889212	-52.898849434233554	0	0
29.030041358781556	-35.682676229859418	0	0
28.962989896866514	-37.026365652745568	0	0
30.359268531947972	-35.890407512619333	0	0
33.013788856569327	-45.333043324966788	0	0
37.668050973507512	-41.546516191212667	0	0
36.603095626289793	-44.991200463735787	0	0
36.02131286167252	-45.464516355455054	0	0
37.184878390907066	-44.51788457201652	0	0
37.580531118511367	-26.527293235252259	0	0
37.878486927354501	-27.839244783989486	0	0
38.916511445255679	-26.368702261960777	0	0
44.020170933279992	-34.745000315862185	0	0
47.480252659617243	-29.843191909099833	0	0
47.384147932036072	-33.44745668792676	0	0
46.951637716243916	-34.060182738772056	0	0
47.816658147828228	-32.834730637081464	0	0
43.343200691377035	-15.404462151870867	0	0
43.984052533870369	-16.587360907829783	0	0
44.586835835465308	-14.891322619906333	0	0
51.760996788293511	-21.579988751715209	0	0
53.770274460276667	-15.926527791970377	0	0
54.650122610866696	-19.423017495837179	0	0
54.398962901868799	-20.129700115805282	0	0
54.901282319864592	-18.716334875869077	0	0
45.887916618653456	-3.139151014774872	0	0
46.824061851378588	-4.1052004924175458	0	0
46.946898195434997	-2.3095863638615408	0	0
55.658823426092802	-6.8142653626815912	0	0
56.068277906280834	-0.82888493416157516	0	0
57.85867747569349	-3.9580599751509253	0	0
57.80749566566999	-4.706232528715927	0	0
57.90985928571699	-3.2098874215859232	0	0
45.035805254422897	9.3589766003405632	0	0
46.197954910830063	8.6812972931962147	0	0
45.831734087338475	10.443567933586676	0	0
55.436565740189224	8.4564189968652794	0	0
54.21582966188393	14.330654464833485	0	0
56.784276190359307	11.800448756951145	0	0
56.936868200147465	11.066169323455119	0	0
56.631684180571149	12.53472819044717	0	0
40.842441499033662	21.162991570625568	0	0
42.14437919278577	20.823965358049378	0	0
41.316262131326503	22.422147851489825	0	0
51.101428231690477	23.100004422998499	0	0
48.341038026826268	28.427279401133323	0	0
51.496991455303316	26.683771980353978	0	0
51.842040230911344	26.017862608087125	0	0
51.151942679695289	27.349681352620831	0	0
33.618433342929656	31.397434975666791	0	0
34.963566491212909	31.422235953210919	0	0
33.734971209556385	32.737739866629909	0	0
42.974447220240457	36.030457795838068	0	0
38.8791296147187	40.415470840568027	0	0
42.388459432389567	39.588070186710297	0	0
42.900374133079787	39.039943556119056	0	0
41.876544731699347	40.136196817301538	0	0
23.900861153157127	39.303136578747797	0	0
25.189419502592564	39.68992704702837	0	0
23.651470679945909	40.625178135630172	0	0
31.659948572022664	46.288544890226198	0	0
26.533452496533819	49.406048518898864	0	0
30.135868410502464	49.556128729725479	0	0
30.776680419938568	49.166440776141393	0	0
29.495056401066361	49.945816683309566	0	0
12.410651472149743	44.292893015339125	0	0
13.547048324018329	45.012964899913129	0	0
11.813848162548537	45.498599087953778	0	0
17.997286119269628	53.112392487881344	0	0
12.219952247703656	54.731173114683479	0	0
15.648212725754023	55.847560758471069	0	0
16.37037945969977	55.645213180120798	0	0
14.926045991808277	56.049908336821339	0	0
59	0	0	0
-59	0	0	0
15.333333333333332	0	0	0
-15.333333333333332	0	0	0
[NumSegments] = 212
7	5	-1	0	0	0
5	6	-1	0	0	0
3	1	-1	0	0	0
4	2	-1	0	0	0
8	0	-1	0	0	0
16	14	-1	0	0	0
14	15	-1	0	0	0
12	10	-1	0	0	0
13	11	-1	0	0	0
17	9	-1	0	0	0
25	23	-1	0	0	0
23	24	-1	0	0	0
21	19	-1	0	0	0
22	20	-1	0	0	0
26	18	-1	0	0	0
34	32	-1	0	0	0
32	33	-1	0	0	0
30	28	-1	0	0	0
31	29	-1	0	0	0
35	27	-1	0	0	0
43	41	-1	0	0	0
41	42	-1	0	0	0
39	37	-1	0	0	0
40	38	-1	0	0	0
44	36	-1	0	0	0
52	50	-1	0	0	0
50	51	-1	0	0	0
48	46	-1	0	0	0
49	47	-1	0	0	0
53	45	-1	0	0	0
61	59	-1	0	0	0
59	60	-1	0	0	0
57	55	-1	0	0	0
58	56	-1	0	0	0
62	54	-1	0	0	0
70	68	-1	0	0	0
68	69	-1	0	0	0
66	64	-1	0	0	0
67	65	-1	0	0	0
71	63	-1	0	0	0
79	77	-1	0	0	0
77	78	-1	0	0	0
75	73	-1	0	0	0
76	74	-1	0	0	0
80	72	-1	0	0	0
88	86	-1	0	0	0
86	87	-1	0	0	0
84	82	-1	0	0	0
85	83	-1	0	0	0
89	81	-1	0	0	0
97	95	-1	0	0	0
95	96	-1	0	0	0
93	91	-1	0	0	0
94	92	-1	0	0	0
98	90	-1	0	0	0
106	104	-1	0	0	0
104	105	-1	0	0	0
102	100	-1	0	0	0
103	101	-1	0	0	0
107	99	-1	0	0	0
115	113	-1	0	0	0
113	114	-1	0	0	0
111	109	-1	0	0	0
112	110	-1	0	0	0
116	108	-1	0	0	0
124	122	-1	0	0	0
122	123	-1	0	0	0
120	118	-1	0	0	0
121	119	-1	0	0	0
125	117	-1	0	0	0
133	131	-1	0	0	0
131	132	-1	0	0	0
129	127	-1	0	0	0
130	128	-1	0	0	0
134	126	-1	0	0	0
142	140	-1	0	0	0
140	141	-1	0	0	0
138	136	-1	0	0	0
139	137	-1	0	0	0
143	135	-1	0	0	0
151	149	-1	0	0	0
149	150	-1	0	0	0
147	145	-1	0	0	0
148	146	-1	0	0	0
152	144	-1	0	0	0
160	158	-1	0	0	0
158	159	-1	0	0	0
156	154	-1	0	0	0
157	155	-1	0	0	0
161	153	-1	0	0	0
169	167	-1	0	0	0
167	168	-1	0	0	0
165	163	-1	0	0	0
166	164	-1	0	0	0
170	162	-1	0	0	0
178	176	-1	0	0	0
176	177	-1	0	0	0
174	172	-1	0	0	0
175	173	-1	0	0	0
179	171	-1	0	0	0
187	185	-1	0	0	0
185	186	-1	0	0	0
183	181	-1	0	0	0
184	182	-1	0	0	0
188	180	-1	0	0	0
196	194	-1	0	0	0
194	195	-1	0	0	0
192	190	-1	0	0	0
193	191	-1	0	0	0
197	189	-1	0	0	0
205	203	-1	0	0	0
203	204	-1	0	0	0
201	199	-1	0	0	0
202	200	-1	0	0	0
206	198	-1	0	0	0
214	212	-1	0	0	0
212	213	-1	0	0	0
210	208	-1	0	0	0
211	209	-1	0	0	0
215	207	-1	0	0	0
227	225	-1	0	0	0
225	226	-1	0	0	0
223	221	-1	0	0	0
224	222	-1	0	0	0
235	233	-1	0	0	0
233	234	-1	0	0	0
231	229	-1	0	0	0
232	230	-1	0	0	0
243	241	-1	0	0	0
241	242	-1	0	0	0
239	237	-1	0	0	0
240	238	-1	0	0	0
251	249	-1	0	0	0
249	250	-1	0	0	0
247	245	-1	0	0	0
248	246	-1	0	0	0
259	257	-1	0	0	0
257	258	-1	0	0	0
255	253	-1	0	0	0
256	254	-1	0	0	0
267	265	-1	0	0	0
265	266	-1	0	0	0
263	261	-1	0	0	0
264	262	-1	0	0	0
275	273	-1	0	0	0
273	274	-1	0	0	0
271	269	-1	0	0	0
272	270	-1	0	0	0
283	281	-1	0	0	0
281	282	-1	0	0	0
279	277	-1	0	0	0
280	278	-1	0	0	0
291	289	-1	0	0	0
289	290	-1	0	0	0
287	285	-1	0	0	0
288	286	-1	0	0	0
299	297	-1	0	0	0
297	298	-1	0	0	0
295	293	-1	0	0	0
296	294	-1	0	0	0
307	305	-1	0	0	0
305	306	-1	0	0	0
303	301	-1	0	0	0
304	302	-1	0	0	0
315	313	-1	0	0	0
313	314	-1	0	0	0
311	309	-1	0	0	0
312	310	-1	0	0	0
323	321	-1	0	0	0
321	322	-1	0	0	0
319	317	-1	0	0	0
320	318	-1	0	0	0
331	329	-1	0	0	0
329	330	-1	0	0	0
327	325	-1	0	0	0
328	326	-1	0	0	0
339	337	-1	0	0	0
337	338	-1	0	0	0
335	333	-1	0	0	0
336	334	-1	0	0	0
347	345	-1	0	0	0
345	346	-1	0	0	0
343	341	-1	0	0	0
344	342	-1	0	0	0
355	353	-1	0	0	0
353	354	-1	0	0	0
351	349	-1	0	0	0
352	350	-1	0	0	0
363	361	-1	0	0	0
361	362	-1	0	0	0
359	357	-1	0	0	0
360	358	-1	0	0	0
371	369	-1	0	0	0
369	370	-1	0	0	0
367	365	-1	0	0	0
368	366	-1	0	0	0
379	377	-1	0	0	0
377	378	-1	0	0	0
375	373	-1	0	0	0
376	374	-1	0	0	0
387	385	-1	0	0	0
385	386	-1	0	0	0
383	381	-1	0	0	0
384	382	-1	0	0	0
395	393	-1	0	0	0
393	394	-1	0	0	0
391	389	-1	0	0	0
392	390	-1	0	0	0
403	401	-1	0	0	0
401	402	-1	0	0	0
399	397	-1	0	0	0
400	398	-1	0	0	0
[NumArcSegments] = 196
7	4	80	1	0	0	0	1
3	6	80	1	0	0	0	1
2	0	70	1	0	0	0	1
8	1	70	1	0	0	0	1
16	13	80	1	0	0	0	1
12	15	80	1	0	0	0	1
11	9	70	1	0	0	0	1
17	10	70	1	0	0	0	1
25	22	80	1	0	0	0	1
21	24	80	1	0	0	0	1
20	18	70	1	0	0	0	1
26	19	70	1	0	0	0	1
34	31	80	1	0	0	0	1
30	33	80	1	0	0	0	1
29	27	70	1	0	0	0	1
35	28	70	1	0	0	0	1
43	40	80	1	0	0	0	1
39	42	80	1	0	0	0	1
38	36	70	1	0	0	0	1
44	37	70	1	0	0	0	1
52	49	80	1	0	0	0	1
48	51	80	1	0	0	0	1
47	45	70	1	0	0	0	1
53	46	70	1	0	0	0	1
61	58	80	1	0	0	0	1
57	60	80	1	0	0	0	1
56	54	70	1	0	0	0	1
62	55	70	1	0	0	0	1
70	67	80	1	0	0	0	1
66	69	80	1	0	0	0	1
65	63	70	1	0	0	0	1
71	64	70	1	0	0	0	1
79	76	80	1	0	0	0	1
75	78	80	1	0	0	0	1
74	72	70	1	0	0	0	1
80	73	70	1	0	0	0	1
88	85	80	1	0	0	0	1
84	87	80	1	0	0	0	1
83	81	70	1	0	0	0	1
89	82	70	1	0	0	0	1
97	94	80	1	0	0	0	1
93	96	80	1	0	0	0	1
92	90	70	1	0	0	0	1
98	91	70	1	0	0	0	1
106	103	80	1	0	0	0	1
102	105	80	1	0	0	0	1
101	99	70	1	0	0	0	1
107	100	70	1	0	0	0	1
115	112	80	1	0	0	0	1
111	114	80	1	0	0	0	1
110	108	70	1	0	0	0	1
116	109	70	1	0	0	0	1
124	121	80	1	0	0	0	1
120	123	80	1	0	0	0	1
119	117	70	1	0	0	0	1
125	118	70	1	0	0	0	1
133	130	80	1	0	0	0	1
129	132	80	1	0	0	0	1
128	126	70	1	0	0	0	1
134	127	70	1	0	0	0	1
142	139	80	1	0	0	0	1
138	141	80	1	0	0	0	1
137	135	70	1	0	0	0	1
143	136	70	1	0	0	0	1
151	148	80	1	0	0	0	1
147	150	80	1	0	0	0	1
146	144	70	1	0	0	0	1
152	145	70	1	0	0	0	1
160	157	80	1	0	0	0	1
156	159	80	1	0	0	0	1
155	153	70	1	0	0	0	1
161	154	70	1	0	0	0	1
169	166	80	1	0	0	0	1
165	168	80	1	0	0	0	1
164	162	70	1	0	0	0	1
170	163	70	1	0	0	0	1
178	175	80	1	0	0	0	1
174	177	80	1	0	0	0	1
173	171	70	1	0	0	0	1
179	172	70	1	0	0	0	1
187	184	80	1	0	0	0	1
183	186	80	1	0	0	0	1
182	180	70	1	0	0	0	1
188	181	70	1	0	0	0	1
196	193	80	1	0	0	0	1
192	195	80	1	0	0	0	1
191	189	70	1	0	0	0	1
197	190	70	1	0	0	0	1
205	202	80	1	0	0	0	1
201	204	80	1	0	0	0	1
200	198	70	1	0	0	0	1
206	199	70	1	0	0	0	1
214	211	80	1	0	0	0	1
210	213	80	1	0	0	0	1
209	207	70	1	0	0	0	1
215	208	70	1	0	0	0	1
216	217	180	1	0	0	0	1
217	216	180	1	0	0	0	1
218	219	180	1	1	0	0	1
219	218	180	1	1	0	0	1
227	224	80	1	0	0	0	1
223	226	80	1	0	0	0	1
222	220	90	1	0	0	0	1
220	221	90	1	0	0	0	1
235	232	80	1	0	0	0	1
231	234	80	1	0	0	0	1
230	228	90	1	0	0	0	1
228	229	90	1	0	0	0	1
243	240	80	1	0	0	0	1
239	242	80	1	0	0	0	1
238	236	90	1	0	0	0	1
236	237	90	1	0	0	0	1
251	248	80	1	0	0	0	1
247	250	80	1	0	0	0	1
246	244	90	1	0	0	0	1
244	245	90	1	0	0	0	1
259	256	80	1	0	0	0	1
255	258	80	1	0	0	0	1
254	252	90	1	0	0	0	1
252	253	90	1	0	0	0	1
267	264	80	1	0	0	0	1
263	266	80	1	0	0	0	1
262	260	90	1	0	0	0	1
260	261	90	1	0	0	0	1
275	272	80	1	0	0	0	1
271	274	80	1	0	0	0	1
270	268	90	1	0	0	0	1
268	269	90	1	0	0	0	1
283	280	80	1	0	0	0	1
279	282	80	1	0	0	0	1
278	276	90	1	0	0	0	1
276	277	90	1	0	0	0	1
291	288	80	1	0	0	0	1
287	290	80	1	0	0	0	1
286	284	90	1	0	0	0	1
284	285	90	1	0	0	0	1
299	296	80	1	0	0	0	1
295	298	80	1	0	0	0	1
294	292	90	1	0	0	0	1
292	293	90	1	0	0	0	1
307	304	80	1	0	0	0	1
303	306	80	1	0	0	0	1
302	300	90	1	0	0	0	1
300	301	90	1	0	0	0	1
315	312	80	1	0	0	0	1
311	314	80	1	0	0	0	1
310	308	90	1	0	0	0	1
308	309	90	1	0	0	0	1
323	320	80	1	0	0	0	1
319	322	80	1	0	0	0	1
318	316	90	1	0	0	0	1
316	317	90	1	0	0	0	1
331	328	80	1	0	0	0	1
327	330	80	1	0	0	0	1
326	324	90	1	0	0	0	1
324	325	90	1	0	0	0	1
339	336	80	1	0	0	0	1
335	338	80	1	0	0	0	1
334	332	90	1	0	0	0	1
332	333	90	1	0	0	0	1
347	344	80	1	0	0	0	1
343	346	80	1	0	0	0	1
342	340	90	1	0	0	0	1
340	341	90	1	0	0	0	1
355	352	80	1	0	0	0	1
351	354	80	1	0	0	0	1
350	348	90	1	0	0	0	1
348	349	90	1	0	0	0	1
363	360	80	1	0	0	0	1
359	362	80	1	0	0	0	1
358	356	90	1	0	0	0	1
356	357	90	1	0	0	0	1
371	368	80	1	0	0	0	1
367	370	80	1	0	0	0	1
366	364	90	1	0	0	0	1
364	365	90	1	0	0	0	1
379	376	80	1	0	0	0	1
375	378	80	1	0	0	0	1
374	372	90	1	0	0	0	1
372	373	90	1	0	0	0	1
387	384	80	1	0	0	0	1
383	386	80	1	0	0	0	1
382	380	90	1	0	0	0	1
380	381	90	1	0	0	0	1
395	392	80	1	0	0	0	1
391	394	80	1	0	0	0	1
390	388	90	1	0	0	0	1
388	389	90	1	0	0	0	1
403	400	80	1	0	0	0	1
399	402	80	1	0	0	0	1
398	396	90	1	0	0	0	1
396	397	90	1	0	0	0	1
404	405	180	1	0	0	0	1
405	404	180	1	0	0	0	1
406	407	180	1	0	0	0	1
407	406	180	1	0	0	0	1
[NumHoles] = 0
[NumBlockLabels] = 51
83.200000000000003	0	5	-1	0	0	0	1	0
-8.810517974851404	66.917671137522191	2	1	6	120	0	2	0
-25.831131643389142	62.361065463040106	2	1	6	120	0	2	0
-41.091392374626373	53.551266415130975	2	1	6	120	0	2	0
-53.551266415130975	41.091392374626373	2	1	6	120	0	2	0
-62.361065463040106	25.831131643389142	2	1	2	-120	0	-2	0
-66.917671137522191	8.810517974851404	2	1	2	-120	0	-2	0
-66.917671137522191	-8.810517974851404	2	1	2	-120	0	-2	0
-62.361065463040106	-25.831131643389142	2	1	2	-120	0	-2	0
-53.551266415130975	-41.091392374626373	2	1	4	0	0	2	0
-41.091392374626373	-53.551266415130975	2	1	4	0	0	2	0
-25.831131643389142	-62.361065463040106	2	1	4	0	0	2	0
-8.810517974851404	-66.917671137522191	2	1	4	0	0	2	0
8.810517974851404	-66.917671137522191	2	1	3	120	0	2	0
25.831131643389142	-62.361065463040106	2	1	3	120	0	2	0