[Format]      =  4.0
[Frequency]   =  50
[Precision]   =  1e-008
[MinAngle]    =  30
[DoSmartMesh] =  1
[Depth]       =  1
[LengthUnits] =  centimeters
[ProblemType] =  planar
[Coordinates] =  cartesian
[ACSolver]    =  0
[PrevType]    =  0
[PrevSoln]    =  ""
[Comment]     =  "Add comments here."
[PointProps]   = 0
[BdryProps]   = 1
  <BeginBdry>
    <BdryName> = "A1"
    <BdryType> = 0
    <A_0> = 0
    <A_1> = 0
    <A_2> = 0
    <Phi> = 0
    <c0> = 0
    <c0i> = 0
    <c1> = 0
    <c1i> = 0
    <Mu_ssd> = 0
    <Sigma_ssd> = 0
    <innerangle> = 0
    <outerangle> = 0
  <EndBdry>
[BlockProps]  = 6
  <BeginBlock>
    <BlockName> = "M-19 Steel"
    <Mu_x> = 5000
    <Mu_y> = 5000
    <H_c> = 0
    <H_cAngle> = 0
    <J_re> = 0
    <J_im> = 0
    <Sigma> = 0
    <d_lam> = 0
    <Phi_h> = 0
    <Phi_hx> = 0
    <Phi_hy> = 0
    <LamType> = 0
    <LamFill> = 1
    <NStrands> = 0
    <WireD> = 0
    <BHPoints> = 0
  <EndBlock>
  <BeginBlock>
    <BlockName> = "Copper"
    <Mu_x> = 58
    <Mu_y> = 58
    <H_c> = 0
    <H_cAngle> = 0
    <J_re> = 0
    <J_im> = 0
    <Sigma> = 0
    <d_lam> = 0
    <Phi_h> = 0
    <Phi_hx> = 0
    <Phi_hy> = 0
    <LamType> = 0
    <LamFill> = 1
    <NStrands> = 0
    <WireD> = 0
    <BHPoints> = 0
  <EndBlock>
  <BeginBlock>
    <BlockName> = "Aluminum"
    <Mu_x> = 37
    <Mu_y> = 37
    <H_c> = 0
    <H_cAngle> = 0
    <J_re> = 0
    <J_im> = 0
    <Sigma> = 0
    <d_lam> = 0
    <Phi_h> = 0
    <Phi_hx> = 0
    <Phi_hy> = 0
    <LamType> = 0
    <LamFill> = 1
    <NStrands> = 0
    <WireD> = 0
    <BHPoints> = 0
  <EndBlock>
  <BeginBlock>
    <BlockName> = "Air"
    <Mu_x> = 1
    <Mu_y> = 1
    <H_c> = 1
    <H_cAngle> = 0
    <J_re> = 0
    <J_im> = 0
    <Sigma> = 0
    <d_lam> = 0
    <Phi_h> = 0
    <Phi_hx> = 0
    <Phi_hy> = 0
    <LamType> = 0
    <LamFill> = 1
    <NStrands> = 0
    <WireD> = 0
    <BHPoints> = 0
  <EndBlock>
  <BeginBlock>
    <BlockName> = "M-19 Steel"
    <Mu_x> = 5000
    <Mu_y> = 5000
    <H_c> = 0
    <H_cAngle> = 0
    <J_re> = 0
    <J_im> = 0
    <Sigma> = 0
    <d_lam> = 0
    <Phi_h> = 0
    <Phi_hx> = 0
    <Phi_hy> = 0
    <LamType> = 0
    <LamFill> = 1
    <NStrands> = 0
    <WireD> = 0
    <BHPoints> = 0
  <EndBlock>
  <BeginBlock>
    <BlockName> = "Air"
    <Mu_x> = 1
    <Mu_y> = 1
    <H_c> = 0
    <H_cAngle> = 0
    <J_re> = 0
    <J_im> = 0
    <Sigma> = 0
    <d_lam> = 0
    <Phi_h> = 0
    <Phi_hx> = 0
    <Phi_hy> = 0
    <LamType> = 0
    <LamFill> = 1
    <NStrands> = 0
    <WireD> = 0
    <BHPoints> = 0
  <EndBlock>
[CircuitProps]  = 6
  <BeginCircuit>
    <CircuitName> = "A"
    <TotalAmps_re> = 1
    <TotalAmps_im> = 0
    <CircuitType> = 1
  <EndCircuit>
  <BeginCircuit>
    <CircuitName> = "C"
    <TotalAmps_re> = 1
    <TotalAmps_im> = 0
    <CircuitType> = 1
  <EndCircuit>
  <BeginCircuit>
    <CircuitName> = "B"
    <TotalAmps_re> = 1
    <TotalAmps_im> = 0
    <CircuitType> = 1
  <EndCircuit>
  <BeginCircuit>
    <CircuitName> = "A1"
    <TotalAmps_re> = -1
    <TotalAmps_im> = -0
    <CircuitType> = 1
  <EndCircuit>
  <BeginCircuit>
    <CircuitName> = "C1"
    <TotalAmps_re> = -1
    <TotalAmps_im> = -0
    <CircuitType> = 1
  <EndCircuit>
  <BeginCircuit>
    <CircuitName> = "B1"
    <TotalAmps_re> = -1
    <TotalAmps_im> = -0
    <CircuitType> = 1
  <EndCircuit>
[NumPoints] = 590
-9.6970003104681393	60.245326413820202	0	0
-6.3968791902604245	61.990952864053654	0	0
-9.8666843603541672	61.534111191283586	0	0
-6.0533858142789736	72.787408875638491	0	0
-12.992996154466459	71.873725530098355	0	0
-9.6589382242815383	73.361595024839133	0	0
-7.2300746052159184	73.681384195778179	0	0
-12.087801843347158	73.041805853900087	0	0
-6.2271951403743966	60.70216808659027	0	0
-9.5664741182481183	59.253953508079135	0	0
-6.0966689481543757	59.710795180849203	0	0
-24.960457700845303	55.686229820289114	0	0
-22.224409434412195	58.226649758864141	0	0
-25.457946162125388	56.887257747725442	0	0
-24.687046453052318	68.744774769411379	0	0
-31.154119908478698	66.065990747133981	0	0
-28.318573949789577	68.366205100221748	0	0
-26.055098240390343	69.303779508018835	0	0
-30.582049659188812	67.428630692424662	0	0
-21.72692097313211	57.025621831427813	0	0
-24.577774269091389	54.762362183799631	0	0
-21.344237541378195	56.10175419493833	0	0
-38.522809645610195	47.329145402479902	0	0
-36.53746709204065	50.491167915826011	0	0
-39.314199424677078	48.360503126030565	0	0
-41.638497114070837	60.013633643839228	0	0
-47.191961779343679	55.752304064248349	0	0
-45.048341269960765	58.708055032884332	0	0
-43.104628637115269	60.199520385741138	0	0
-46.992053902806262	57.216589680027525	0	0
-35.746077312973767	49.459810192275349	0	0
-37.914048277097208	46.535793307440926	0	0
-35.137315944460781	48.666458097236372	0	0
-49.459810192275349	35.746077312973767	0	0
-48.360503126030565	39.314199424677078	0	0
-50.491167915826011	36.53746709204065	0	0
-55.752304064248349	47.191961779343679	0	0
-60.013633643839228	41.638497114070837	0	0
-58.708055032884332	45.048341269960765	0	0
-57.216589680027525	46.992053902806262	0	0
-60.199520385741138	43.104628637115269	0	0
-47.329145402479902	38.522809645610195	0	0
-48.666458097236372	35.137315944460781	0	0
-46.535793307440926	37.914048277097208	0	0
-57.025621831427813	21.72692097313211	0	0
-56.887257747725442	25.457946162125388	0	0
-58.226649758864141	22.224409434412195	0	0
-66.065990747133981	31.154119908478698	0	0
-68.744774769411379	24.687046453052318	0	0
-68.366205100221748	28.318573949789577	0	0
-67.428630692424662	30.582049659188812	0	0
-69.303779508018835	26.055098240390343	0	0
-55.686229820289114	24.960457700845303	0	0
-56.10175419493833	21.344237541378195	0	0
-54.762362183799631	24.577774269091389	0	0
-60.70216808659027	6.2271951403743966	0	0
-61.534111191283586	9.8666843603541672	0	0
-61.990952864053654	6.3968791902604245	0	0
-71.873725530098355	12.992996154466459	0	0
-72.787408875638491	6.0533858142789736	0	0
-73.361595024839133	9.6589382242815383	0	0
-73.041805853900087	12.087801843347158	0	0
-73.681384195778179	7.2300746052159184	0	0
-60.245326413820202	9.6970003104681393	0	0
-59.710795180849203	6.0966689481543757	0	0
-59.253953508079135	9.5664741182481183	0	0
-60.245326413820202	-9.6970003104681393	0	0
-61.990952864053654	-6.3968791902604245	0	0
-61.534111191283586	-9.8666843603541672	0	0
-72.787408875638491	-6.0533858142789736	0	0
-71.873725530098355	-12.992996154466459	0	0
-73.361595024839133	-9.6589382242815383	0	0
-73.681384195778179	-7.2300746052159184	0	0
-73.041805853900087	-12.087801843347158	0	0
-60.70216808659027	-6.2271951403743966	0	0
-59.253953508079135	-9.5664741182481183	0	0
-59.710795180849203	-6.0966689481543757	0	0
-55.686229820289114	-24.960457700845303	0	0
-58.226649758864141	-22.224409434412195	0	0
-56.887257747725442	-25.457946162125388	0	0
-68.744774769411379	-24.687046453052318	0	0
-66.065990747133981	-31.154119908478698	0	0
-68.366205100221748	-28.318573949789577	0	0
-69.303779508018835	-26.055098240390343	0	0
-67.428630692424662	-30.582049659188812	0	0
-57.025621831427813	-21.72692097313211	0	0
-54.762362183799631	-24.577774269091389	0	0
-56.10175419493833	-21.344237541378195	0	0
-47.329145402479902	-38.522809645610195	0	0
-50.491167915826011	-36.53746709204065	0	0
-48.360503126030565	-39.314199424677078	0	0
-60.013633643839228	-41.638497114070837	0	0
-55.752304064248349	-47.191961779343679	0	0
-58.708055032884332	-45.048341269960765	0	0
-60.199520385741138	-43.104628637115269	0	0
-57.216589680027525	-46.992053902806262	0	0
-49.459810192275349	-35.746077312973767	0	0
-46.535793307440926	-37.914048277097208	0	0
-48.666458097236372	-35.137315944460781	0	0
-35.746077312973767	-49.459810192275349	0	0
-39.314199424677078	-48.360503126030565	0	0
-36.53746709204065	-50.491167915826011	0	0
-47.191961779343679	-55.752304064248349	0	0
-41.638497114070837	-60.013633643839228	0	0
-45.048341269960765	-58.708055032884332	0	0
-46.992053902806262	-57.216589680027525	0	0
-43.104628637115269	-60.199520385741138	0	0
-38.522809645610195	-47.329145402479902	0	0
-35.137315944460781	-48.666458097236372	0	0
-37.914048277097208	-46.535793307440926	0	0
-21.72692097313211	-57.025621831427813	0	0
-25.457946162125388	-56.887257747725442	0	0
-22.224409434412195	-58.226649758864141	0	0
-31.154119908478698	-66.065990747133981	0	0
-24.687046453052318	-68.744774769411379	0	0
-28.318573949789577	-68.366205100221748	0	0
-30.582049659188812	-67.428630692424662	0	0
-26.055098240390343	-69.303779508018835	0	0
-24.960457700845303	-55.686229820289114	0	0
-21.344237541378195	-56.10175419493833	0	0
-24.577774269091389	-54.762362183799631	0	0
-6.2271951403743966	-60.70216808659027	0	0
-9.8666843603541672	-61.534111191283586	0	0
-6.3968791902604245	-61.990952864053654	0	0
-12.992996154466459	-71.873725530098355	0	0
-6.0533858142789736	-72.787408875638491	0	0
-9.6589382242815383	-73.361595024839133	0	0
-12.087801843347158	-73.041805853900087	0	0
-7.2300746052159184	-73.681384195778179	0	0
-9.6970003104681393	-60.245326413820202	0	0
-6.0966689481543757	-59.710795180849203	0	0
-9.5664741182481183	-59.253953508079135	0	0
9.6970003104681393	-60.245326413820202	0	0
6.3968791902604245	-61.990952864053654	0	0
9.8666843603541672	-61.534111191283586	0	0
6.0533858142789736	-72.787408875638491	0	0
12.992996154466459	-71.873725530098355	0	0
9.6589382242815383	-73.361595024839133	0	0
7.2300746052159184	-73.681384195778179	0	0
12.087801843347158	-73.041805853900087	0	0
6.2271951403743966	-60.70216808659027	0	0
9.5664741182481183	-59.253953508079135	0	0
6.0966689481543757	-59.710795180849203	0	0
24.960457700845303	-55.686229820289114	0	0
22.224409434412195	-58.226649758864141	0	0
25.457946162125388	-56.887257747725442	0	0
24.687046453052318	-68.744774769411379	0	0
31.154119908478698	-66.065990747133981	0	0
28.318573949789577	-68.366205100221748	0	0
26.055098240390343	-69.303779508018835	0	0
30.582049659188812	-67.428630692424662	0	0
21.72692097313211	-57.025621831427813	0	0
24.577774269091389	-54.762362183799631	0	0
21.344237541378195	-56.10175419493833	0	0
38.522809645610195	-47.329145402479902	0	0
36.53746709204065	-50.491167915826011	0	0
39.314199424677078	-48.360503126030565	0	0
41.638497114070837	-60.013633643839228	0	0
47.191961779343679	-55.752304064248349	0	0
45.048341269960765	-58.708055032884332	0	0
43.104628637115269	-60.199520385741138	0	0
46.992053902806262	-57.216589680027525	0	0
35.746077312973767	-49.459810192275349	0	0
37.914048277097208	-46.535793307440926	0	0
35.137315944460781	-48.666458097236372	0	0
49.459810192275349	-35.746077312973767	0	0
48.360503126030565	-39.314199424677078	0	0
50.491167915826011	-36.53746709204065	0	0
55.752304064248349	-47.191961779343679	0	0
60.013633643839228	-41.638497114070837	0	0
58.708055032884332	-45.048341269960765	0	0
57.216589680027525	-46.992053902806262	0	0
60.199520385741138	-43.104628637115269	0	0
47.329145402479902	-38.522809645610195	0	0
48.666458097236372	-35.137315944460781	0	0
46.535793307440926	-37.914048277097208	0	0
57.025621831427813	-21.72692097313211	0	0
56.887257747725442	-25.457946162125388	0	0
58.226649758864141	-22.224409434412195	0	0
66.065990747133981	-31.154119908478698	0	0
68.744774769411379	-24.687046453052318	0	0
68.366205100221748	-28.318573949789577	0	0
67.428630692424662	-30.582049659188812	0	0
69.303779508018835	-26.055098240390343	0	0
55.686229820289114	-24.960457700845303	0	0
56.10175419493833	-21.344237541378195	0	0
54.762362183799631	-24.577774269091389	0	0
60.70216808659027	-6.2271951403743966	0	0
61.534111191283586	-9.8666843603541672	0	0
61.990952864053654	-6.3968791902604245	0	0
71.873725530098355	-12.992996154466459	0	0
72.787408875638491	-6.0533858142789736	0	0
73.361595024839133	-9.6589382242815383	0	0
73.041805853900087	-12.087801843347158	0	0
73.681384195778179	-7.2300746052159184	0	0
60.245326413820202	-9.6970003104681393	0	0
59.710795180849203	-6.0966689481543757	0	0
59.253953508079135	-9.5664741182481183	0	0
60.245326413820202	9.6970003104681393	0	0
61.990952864053654	6.3968791902604245	0	0
61.534111191283586	9.8666843603541672	0	0
72.787408875638491	6.0533858142789736	0	0
71.873725530098355	12.992996154466459	0	0
73.361595024839133	9.6589382242815383	0	0
73.681384195778179	7.2300746052159184	0	0
73.041805853900087	12.087801843347158	0	0
60.70216808659027	6.2271951403743966	0	0
59.253953508079135	9.5664741182481183	0	0
59.710795180849203	6.0966689481543757	0	0
55.686229820289114	24.960457700845303	0	0
58.226649758864141	22.224409434412195	0	0
56.887257747725442	25.457946162125388	0	0
68.744774769411379	24.687046453052318	0	0
66.065990747133981	31.154119908478698	0	0
68.366205100221748	28.318573949789577	0	0
69.303779508018835	26.055098240390343	0	0
67.428630692424662	30.582049659188812	0	0
57.025621831427813	21.72692097313211	0	0
54.762362183799631	24.577774269091389	0	0
56.10175419493833	21.344237541378195	0	0
47.329145402479902	38.522809645610195	0	0
50.491167915826011	36.53746709204065	0	0
48.360503126030565	39.314199424677078	0	0
60.013633643839228	41.638497114070837	0	0
55.752304064248349	47.191961779343679	0	0
58.708055032884332	45.048341269960765	0	0
60.199520385741138	43.104628637115269	0	0
57.216589680027525	46.992053902806262	0	0
49.459810192275349	35.746077312973767	0	0
46.535793307440926	37.914048277097208	0	0
48.666458097236372	35.137315944460781	0	0
35.746077312973767	49.459810192275349	0	0
39.314199424677078	48.360503126030565	0	0
36.53746709204065	50.491167915826011	0	0
47.191961779343679	55.752304064248349	0	0
41.638497114070837	60.013633643839228	0	0
45.048341269960765	58.708055032884332	0	0
46.992053902806262	57.216589680027525	0	0
43.104628637115269	60.199520385741138	0	0
38.522809645610195	47.329145402479902	0	0
35.137315944460781	48.666458097236372	0	0
37.914048277097208	46.535793307440926	0	0
21.72692097313211	57.025621831427813	0	0
25.457946162125388	56.887257747725442	0	0
22.224409434412195	58.226649758864141	0	0
31.154119908478698	66.065990747133981	0	0
24.687046453052318	68.744774769411379	0	0
28.318573949789577	68.366205100221748	0	0
30.582049659188812	67.428630692424662	0	0
26.055098240390343	69.303779508018835	0	0
24.960457700845303	55.686229820289114	0	0
21.344237541378195	56.10175419493833	0	0
24.577774269091389	54.762362183799631	0	0
6.2271951403743966	60.70216808659027	0	0
9.8666843603541672	61.534111191283586	0	0
6.3968791902604245	61.990952864053654	0	0
12.992996154466459	71.873725530098355	0	0
6.0533858142789736	72.787408875638491	0	0
9.6589382242815383	73.361595024839133	0	0
12.087801843347158	73.041805853900087	0	0
7.2300746052159184	73.681384195778179	0	0
9.6970003104681393	60.245326413820202	0	0
6.0966689481543757	59.710795180849203	0	0
9.5664741182481183	59.253953508079135	0	0
84	0	0	0
-84	0	0	0
0	45.992782664376946	0	0
0.89985879125954882	46.492704215076699	0	0
-0.89985879125954882	46.492704215076699	0	0
2.9995293041984965	51.325279205174276	0	0
-2.9995293041984965	51.325279205174276	0	0
0	57.990899881170932	0	0
2.9995293041984965	57.990899881170932	0	0
-2.9995293041984965	57.990899881170932	0	0
-0.99984310139949883	53.324965407973274	0	0
0.99984310139949883	53.324965407973274	0	0
-0.99984310139949883	54.241488250922814	0	0
0.99984310139949883	54.241488250922814	0	0
-2.9995293041984965	58.990742982570431	0	0
2.9995293041984965	58.990742982570431	0	0
-12.410651472149725	44.292893015339125	0	0
-11.678949776981673	45.017154598656603	0	0
-13.412149938451465	44.531520410615968	0	0
-10.96090064907975	50.237691214576614	0	0
-16.738234520645722	48.618910587774479	0	0
-15.648212725754	55.847560758471069	0	0
-12.759545789971014	56.656951071872136	0	0
-18.536879661536986	55.038170445070001	0	0
-15.352050105724445	51.084282087230513	0	0
-13.426272148535787	51.623875629497896	0	0
-15.599363812596993	51.966930317608643	0	0
-13.673585855408335	52.506523859876026	0	0
-18.806676432670674	56.00105942366433	0	0
-13.029342561104704	57.619840050466465	0	0
-23.900861153157138	39.30313657874779	0	0
-23.391678710889867	40.197970129339431	0	0
-24.929627533536522	39.262719040737629	0	0
-24.108727452010644	45.418773793518653	0	0
-29.235223527499489	42.301270164845988	0	0
-30.135868410502479	49.556128729725472	0	0
-27.572620372758056	51.114880544061805	0	0
-32.699116448246897	47.99737691538914	0	0
-28.565559378560764	45.049270066233156	0	0
-26.856727353397815	46.088437942457382	0	0
-29.041844655163533	45.832484744432833	0	0
-27.333012630000585	46.871652620657059	0	0
-33.218700386359011	48.851792927970614	0	0
-28.092204310870169	51.969296556643279	0	0
-33.618433342929656	31.397434975666791	0	0
-33.369553455828886	32.396463399503091	0	0
-34.59814873748541	31.080959486084108	0	0
-35.468563913262074	37.230223814051108	0	0
-39.56388151878383	32.845210769321149	0	0
-42.388459432389567	39.588070186710297	0	0
-40.340800629628689	41.780576709075277	0	0
-44.436118235150445	37.395563664345318	0	0
-39.660446665186562	35.671987652738387	0	0
-38.295340796679305	37.133658667648369	0	0
-40.330379213686967	36.297661175804208	0	0
-38.96527334517971	37.75933219071419	0	0
-45.166953742605436	38.078116598598946	0	0
-41.071636137083679	42.463129643328905	0	0
-40.842441499033654	21.162991570625586	0	0
-40.872322549815252	22.192115334417824	0	0
-41.700439611274518	20.593932840977377	0	0
-44.197601932721398	26.280309241794512	0	0
-46.957992137585606	20.953034263659688	0	0
-51.496991455303302	26.683771980353995	0	0
-50.116796352871198	29.347409469421407	0	0
-52.877186557735406	24.020134491286584	0	0
-47.813620395342475	23.648922657992699	0	0
-46.893490327054401	25.424680984037643	0	0
-48.627509628113074	24.070648939291395	0	0
-47.707379559825	25.846407265336339	0	0
-53.765065720757875	24.480199525430617	0	0
-51.004675515893666	29.807474503565441	0	0
-45.035805254422904	9.3589766003405543	0	0
-45.342214465007793	10.341839927061226	0	0
-45.708435288499381	8.5795692866707647	0	0
-49.646979853464224	13.381193070596026	0	0
-50.867715931769517	7.5069576026278213	0	0
-56.784276190359314	11.800448756951134	0	0
-56.173908151206668	14.737566490935237	0	0
-57.394644229511961	8.8633310229670315	0	0
-52.418882394990483	9.8719481180523196	0	0
-52.011970368888718	11.830026607375054	0	0
-53.316335035930067	10.058449463348961	0	0
-52.909423009828302	12.016527952671694	0	0
-58.373683474173326	9.0667870360179137	0	0
-57.152947395868033	14.941022503986119	0	0
-45.887916618653456	-3.139151014774872	0	0
-46.448116493058329	-2.2754651571792053	0	0
-46.325280149001919	-4.0710792857352098	0	0
-51.412982017431936	-0.51042033845977652	0	0
-51.003527537243905	-6.4958007669797926	0	0
-57.85867747569349	-3.9580599751509253	0	0
-58.063404715787506	-0.96536976089091731	0	0
-57.653950235599474	-6.9507501894109334	0	0
-53.135139173479921	-4.6371587842024633	0	0
-53.271624000209265	-2.642031974695791	0	0
-54.049572294503811	-4.6997143297867447	0	0
-54.186057121233155	-2.7045875202800724	0	0
-58.65151364035281	-7.0189926027756044	0	0
-59.060968120540842	-1.0336121742555884	0	0
-43.343200691377035	-15.404462151870886	0	0
-44.115714088819914	-14.723882813907759	0	0
-43.51293078722496	-16.419921101831207	0	0
-49.373138158252914	-14.363756269316836	0	0
-47.363860486269758	-20.017217229061668	0	0
-54.650122610866696	-19.423017495837204	0	0
-55.654761446858274	-16.596287015964787	0	0
-53.645483774875117	-22.249747975709621	0	0
-49.918106696845747	-18.802489466474444	0	0
-50.587865920840137	-16.918002479892831	0	0
-50.781829899028985	-19.109462444138536	0	0
-51.451589123023375	-17.224975457556923	0	0
-54.587727268165921	-22.584627587706812	0	0
-56.597004940149077	-16.931166627961979	0	0
-37.580531118511352	-26.527293235252259	0	0
-38.508027411358803	-26.080362118099341	0	0
-37.470002893457625	-27.550904640128049	0	0
-43.66773500991318	-27.152017233059752	0	0
-40.207653283575929	-32.053825639822101	0	0
-47.384147932036051	-33.44745668792676	0	0
-49.114188795204676	-30.996552484545585	0	0
-45.654107068867425	-35.898360891307938	0	0
-42.994949994609129	-31.573250079680399	0	0
-44.148310570054875	-29.939313944092952	0	0
-43.743837390086711	-32.101873676759702	0	0
-44.897197965532456	-30.467937541172255	0	0
-46.471075136661149	-36.475041179030811	0	0
-49.9311568629984	-31.573232772268462	0	0
-29.030041358781556	-35.682676229859418	0	0
-30.043724604135129	-35.502552336207813	0	0
-28.64744596905367	-36.638510476334048	0	0
-34.722974313920979	-37.926534544705191	0	0
-30.068712196982794	-41.713061678459312	0	0
-36.603095626289793	-44.991200463735787	0	0
-38.930226684758885	-43.097936896858727	0	0
-34.275964567820701	-46.884464030612847	0	0
-32.882308613880227	-42.002306672853997	0	0
-34.433729319526293	-40.740130961602624	0	0
-33.460805814870433	-42.713374496275108	0	0
-35.012226520516499	-41.451198785023735	0	0
-34.907052423446387	-47.66017438343588	0	0
-39.561314540384572	-43.87364724968176	0	0
-18.326450091696355	-42.191239854198543	0	0
-19.351131415927377	-42.291279307341419	0	0
-17.700169856415258	-43.008401267451283	0	0
-23.202858498616127	-45.887774541458761	0	0
-17.699653300242407	-48.27818107515828	0	0
-23.107263159095403	-53.197650250945991	0	0
-25.858865758282263	-52.002446984096231	0	0
-20.355660559908543	-54.39285351779575	0	0
-20.330857210933488	-49.31578063004968	0	0
-22.16525894372473	-48.518978452149845	0	0
-20.696058209137579	-50.156548090912331	0	0
-22.530459941928822	-49.359745913012496	0	0
-20.754061648858464	-55.310054384191368	0	0
-26.257266847232184	-52.919647850491849	0	0
-6.2636658584252674	-45.568358988281091	0	0
-7.2233040327440854	-45.941117253967128	0	0
-5.4401943332026512	-46.186217222340296	0	0
-9.9617374861740657	-50.443147039633779	0	0
-4.0180384877026185	-51.260146934210987	0	0
-7.8976656475796849	-57.455756985223985	0	0
-10.869515146815409	-57.047257037935381	0	0
-4.9258161483439613	-57.864256932512589	0	0
-6.2716047853855041	-52.969046635509066	0	0
-8.252837784875986	-52.696713337316659	0	0
-6.3964242137236882	-53.877111760275533	0	0
-8.3776572132141709	-53.604778462083125	0	0
-5.0619827974401623	-58.854873432257833	0	0
-11.005681795911611	-58.037873537680625	0	0
6.2636658584252674	-45.568358988281091	0	0
5.4401943332026512	-46.186217222340296	0	0
7.2233040327440854	-45.941117253967128	0	0
4.0180384877026185	-51.260146934210987	0	0
9.9617374861740657	-50.443147039633779	0	0
7.8976656475796849	-57.455756985223985	0	0
4.9258161483439613	-57.864256932512589	0	0
10.869515146815409	-57.047257037935381	0	0
8.252837784875986	-52.696713337316659	0	0
6.2716047853855041	-52.969046635509066	0	0
8.3776572132141709	-53.604778462083125	0	0
6.3964242137236882	-53.877111760275533	0	0
11.005681795911611	-58.037873537680625	0	0
5.0619827974401623	-58.854873432257833	0	0
18.326450091696355	-42.19123985419855	0	0
17.700169856415258	-43.008401267451298	0	0
19.351131415927377	-42.291279307341433	0	0
17.699653300242403	-48.278181075158294	0	0
23.202858498616131	-45.887774541458775	0	0
23.107263159095403	-53.197650250945998	0	0
20.355660559908543	-54.392853517795757	0	0
25.858865758282263	-52.002446984096238	0	0
22.16525894372473	-48.518978452149852	0	0
20.330857210933488	-49.315780630049687	0	0
22.530459941928822	-49.359745913012503	0	0
20.696058209137579	-50.156548090912338	0	0
26.257266847232184	-52.919647850491856	0	0
20.754061648858464	-55.310054384191375	0	0
29.030041358781556	-35.682676229859418	0	0
28.64744596905367	-36.638510476334048	0	0
30.043724604135129	-35.502552336207813	0	0
30.068712196982794	-41.713061678459312	0	0
34.722974313920979	-37.926534544705191	0	0
36.603095626289793	-44.991200463735787	0	0
34.275964567820701	-46.884464030612847	0	0
38.930226684758885	-43.097936896858727	0	0
34.433729319526293	-40.740130961602624	0	0
32.882308613880227	-42.002306672853997	0	0
35.012226520516499	-41.451198785023735	0	0
33.460805814870433	-42.713374496275108	0	0
39.561314540384572	-43.87364724968176	0	0
34.907052423446387	-47.66017438343588	0	0
37.580531118511367	-26.527293235252259	0	0
37.470002893457639	-27.550904640128049	0	0
38.508027411358817	-26.080362118099341	0	0
40.207653283575944	-32.053825639822101	0	0
43.667735009913194	-27.152017233059752	0	0
47.384147932036072	-33.44745668792676	0	0
45.654107068867447	-35.898360891307938	0	0
49.114188795204697	-30.996552484545585	0	0
44.148310570054889	-29.939313944092952	0	0
42.994949994609144	-31.573250079680399	0	0
44.89719796553247	-30.467937541172255	0	0
43.743837390086725	-32.101873676759702	0	0
49.931156862998421	-31.573232772268462	0	0
46.47107513666117	-36.475041179030811	0	0
43.343200691377035	-15.404462151870867	0	0
43.51293078722496	-16.419921101831186	0	0
44.115714088819914	-14.723882813907737	0	0
47.363860486269758	-20.017217229061647	0	0
49.373138158252914	-14.363756269316815	0	0
54.650122610866696	-19.423017495837179	0	0
53.645483774875117	-22.249747975709596	0	0
55.654761446858274	-16.596287015964762	0	0
50.587865920840137	-16.918002479892806	0	0
49.918106696845747	-18.80248946647442	0	0
51.451589123023375	-17.224975457556898	0	0
50.781829899028985	-19.109462444138511	0	0
56.597004940149077	-16.931166627961954	0	0
54.587727268165921	-22.584627587706787	0	0
45.887916618653456	-3.139151014774872	0	0
46.325280149001919	-4.0710792857352098	0	0
46.448116493058329	-2.2754651571792053	0	0
51.003527537243905	-6.4958007669797926	0	0
51.412982017431936	-0.51042033845977652	0	0
57.85867747569349	-3.9580599751509253	0	0
57.653950235599474	-6.9507501894109334	0	0
58.063404715787506	-0.96536976089091731	0	0
53.271624000209265	-2.642031974695791	0	0
53.135139173479921	-4.6371587842024633	0	0
54.186057121233155	-2.7045875202800724	0	0
54.049572294503811	-4.6997143297867447	0	0
59.060968120540842	-1.0336121742555884	0	0
58.65151364035281	-7.0189926027756044	0	0
45.035805254422897	9.3589766003405632	0	0
45.708435288499381	8.5795692866707736	0	0
45.342214465007793	10.341839927061235	0	0
50.86771593176951	7.506957602627832	0	0
49.646979853464217	13.381193070596037	0	0
56.784276190359307	11.800448756951145	0	0
57.394644229511954	8.8633310229670421	0	0
56.17390815120666	14.737566490935247	0	0
52.011970368888711	11.830026607375064	0	0
52.418882394990476	9.8719481180523303	0	0
52.909423009828295	12.016527952671705	0	0
53.316335035930059	10.058449463348971	0	0
57.152947395868026	14.94102250398613	0	0
58.373683474173319	9.0667870360179244	0	0
40.842441499033662	21.162991570625568	0	0
41.700439611274533	20.593932840977363	0	0
40.872322549815266	22.19211533441781	0	0
46.957992137585613	20.953034263659674	0	0
44.197601932721405	26.280309241794498	0	0
51.496991455303316	26.683771980353978	0	0
52.877186557735421	24.020134491286566	0	0
50.116796352871212	29.34740946942139	0	0
46.893490327054415	25.424680984037625	0	0
47.81362039534249	23.648922657992681	0	0
47.707379559825014	25.846407265336321	0	0
48.627509628113089	24.070648939291377	0	0
51.00467551589368	29.807474503565423	0	0
53.765065720757889	24.480199525430599	0	0
33.618433342929656	31.397434975666791	0	0
34.59814873748541	31.080959486084108	0	0
33.369553455828886	32.396463399503091	0	0
39.56388151878383	32.845210769321149	0	0
35.468563913262074	37.230223814051108	0	0
42.388459432389567	39.588070186710297	0	0
44.436118235150445	37.395563664345318	0	0
40.340800629628689	41.780576709075277	0	0
38.295340796679305	37.133658667648369	0	0
39.660446665186562	35.671987652738387	0	0
38.96527334517971	37.75933219071419	0	0
40.330379213686967	36.297661175804208	0	0
41.071636137083679	42.463129643328905	0	0
45.166953742605436	38.078116598598946	0	0
23.900861153157127	39.303136578747797	0	0
24.929627533536511	39.262719040737629	0	0
23.391678710889856	40.197970129339431	0	0
29.235223527499478	42.301270164845995	0	0
24.108727452010633	45.41877379351866	0	0
30.135868410502464	49.556128729725479	0	0
32.699116448246883	47.997376915389147	0	0
27.572620372758042	51.114880544061812	0	0
26.856727353397805	46.088437942457382	0	0
28.565559378560753	45.049270066233156	0	0
27.333012630000571	46.871652620657066	0	0
29.041844655163519	45.83248474443284	0	0
28.092204310870152	51.969296556643286	0	0
33.218700386358996	48.851792927970621	0	0
12.410651472149743	44.292893015339125	0	0
13.412149938451483	44.531520410615961	0	0
11.678949776981691	45.01715459865661	0	0
16.738234520645744	48.618910587774479	0	0
10.96090064907977	50.237691214576614	0	0
15.648212725754023	55.847560758471069	0	0
18.536879661537011	55.038170445070001	0	0
12.759545789971037	56.656951071872136	0	0
13.426272148535809	51.623875629497896	0	0
15.352050105724466	51.084282087230513	0	0
13.673585855408357	52.506523859876026	0	0
15.599363812597014	51.966930317608643	0	0
13.029342561104727	57.619840050466465	0	0
18.806676432670702	56.00105942366433	0	0
15.333333333333332	0	0	0
-15.333333333333332	0	0	0
[NumSegments] = 352
7	5	-1	0	0	0
5	6	-1	0	0	0
3	1	-1	0	0	0
4	2	-1	0	0	0
8	0	-1	0	0	0
0	9	-1	0	0	0
8	10	-1	0	0	0
18	16	-1	0	0	0
16	17	-1	0	0	0
14	12	-1	0	0	0
15	13	-1	0	0	0
19	11	-1	0	0	0
11	20	-1	0	0	0
19	21	-1	0	0	0
29	27	-1	0	0	0
27	28	-1	0	0	0
25	23	-1	0	0	0
26	24	-1	0	0	0
30	22	-1	0	0	0
22	31	-1	0	0	0
30	32	-1	0	0	0
40	38	-1	0	0	0
38	39	-1	0	0	0
36	34	-1	0	0	0
37	35	-1	0	0	0
41	33	-1	0	0	0
33	42	-1	0	0	0
41	43	-1	0	0	0
51	49	-1	0	0	0
49	50	-1	0	0	0
47	45	-1	0	0	0
48	46	-1	0	0	0
52	44	-1	0	0	0
44	53	-1	0	0	0
52	54	-1	0	0	0
62	60	-1	0	0	0
60	61	-1	0	0	0
58	56	-1	0	0	0
59	57	-1	0	0	0
63	55	-1	0	0	0
55	64	-1	0	0	0
63	65	-1	0	0	0
73	71	-1	0	0	0
71	72	-1	0	0	0
69	67	-1	0	0	0