[Format]      =  4.0
[Frequency]   =  50
[Precision]   =  1e-008
[MinAngle]    =  30
[DoSmartMesh] =  1
[Depth]       =  1
[LengthUnits] =  centimeters
[ProblemType] =  planar
[Coordinates] =  cartesian
[ACSolver]    =  0
[PrevType]    =  0
[PrevSoln]    =  ""
[Comment]     =  "Add comments here."
[PointProps]   = 0
[BdryProps]   = 1
  <BeginBdry>
    <BdryName> = "A1"
    <BdryType> = 0
    <A_0> = 0
    <A_1> = 0
    <A_2> = 0
    <Phi> = 0
    <c0> = 0
    <c0i> = 0
    <c1> = 0
    <c1i> = 0
    <Mu_ssd> = 0
    <Sigma_ssd> = 0
    <innerangle> = 0
    <outerangle> = 0
  <EndBdry>
[BlockProps]  = 6
  <BeginBlock>
    <BlockName> = "M-19 Steel"
    <Mu_x> = 5000
    <Mu_y> = 5000
    <H_c> = 0
    <H_cAngle> = 0
    <J_re> = 0
    <J_im> = 0
    <Sigma> = 0
    <d_lam> = 0
    <Phi_h> = 0
    <Phi_hx> = 0
    <Phi_hy> = 0
    <LamType> = 0
    <LamFill> = 1
    <NStrands> = 0
    <WireD> = 0
    <BHPoints> = 0
  <EndBlock>
  <BeginBlock>
    <BlockName> = "Copper"
    <Mu_x> = 58
    <Mu_y> = 58
    <H_c> = 0
    <H_cAngle> = 0
    <J_re> = 0
    <J_im> = 0
    <Sigma> = 0
    <d_lam> = 0
    <Phi_h> = 0
    <Phi_hx> = 0
    <Phi_hy> = 0
    <LamType> = 0
    <LamFill> = 1
    <NStrands> = 0
    <WireD> = 0
    <BHPoints> = 0
  <EndBlock>
  <BeginBlock>
    <BlockName> = "Aluminum"
    <Mu_x> = 37
    <Mu_y> = 37
    <H_c> = 0
    <H_cAngle> = 0
    <J_re> = 0
    <J_im> = 0
    <Sigma> = 0
    <d_lam> = 0
    <Phi_h> = 0
    <Phi_hx> = 0
    <Phi_hy> = 0
    <LamType> = 0
    <LamFill> = 1
    <NStrands> = 0
    <WireD> = 0
    <BHPoints> = 0
  <EndBlock>
  <BeginBlock>
    <BlockName> = "Air"
    <Mu_x> = 1
    <Mu_y> = 1
    <H_c> = 1
    <H_cAngle> = 0
    <J_re> = 0
    <J_im> = 0
    <Sigma> = 0
    <d_lam> = 0
    <Phi_h> = 0
    <Phi_hx> = 0
    <Phi_hy> = 0
    <LamType> = 0
    <LamFill> = 1
    <NStrands> = 0
    <WireD> = 0
    <BHPoints> = 0
  <EndBlock>
  <BeginBlock>
    <BlockName> = "M-19 Steel"
    <Mu_x> = 5000
    <Mu_y> = 5000
    <H_c> = 0
    <H_cAngle> = 0
    <J_re> = 0
    <J_im> = 0
    <Sigma> = 0
    <d_lam> = 0
    <Phi_h> = 0
    <Phi_hx> = 0
    <Phi_hy> = 0
    <LamType> = 0
    <LamFill> = 1
    <NStrands> = 0
    <WireD> = 0
    <BHPoints> = 0
  <EndBlock>
  <BeginBlock>
    <BlockName> = "Air"
    <Mu_x> = 1
    <Mu_y> = 1
    <H_c> = 0
    <H_cAngle> = 0
    <J_re> = 0
    <J_im> = 0
    <Sigma> = 0
    <d_lam> = 0
    <Phi_h> = 0
    <Phi_hx> = 0
    <Phi_hy> = 0
    <LamType> = 0
    <LamFill> = 1
    <NStrands> = 0
    <WireD> = 0
    <BHPoints> = 0
  <EndBlock>
[CircuitProps]  = 6
  <BeginCircuit>
    <CircuitName> = "A"
    <TotalAmps_re> = 1
    <TotalAmps_im> = 0
    <CircuitType> = 1
  <EndCircuit>
  <BeginCircuit>
    <CircuitName> = "C"
    <TotalAmps_re> = 1
    <TotalAmps_im> = 0
    <CircuitType> = 1
  <EndCircuit>
  <BeginCircuit>
    <CircuitName> = "B"
    <TotalAmps_re> = 1
    <TotalAmps_im> = 0
    <CircuitType> = 1
  <EndCircuit>
  <BeginCircuit>
    <CircuitName> = "A1"
    <TotalAmps_re> = -1
    <TotalAmps_im> = -0
    <CircuitType> = 1
  <EndCircuit>
  <BeginCircuit>
    <CircuitName> = "C1"
    <TotalAmps_re> = -1
    <TotalAmps_im> = -0
    <CircuitType> = 1
  <EndCircuit>
  <BeginCircuit>
    <CircuitName> = "B1"
    <TotalAmps_re> = -1
    <TotalAmps_im> = -0
    <CircuitType> = 1
  <EndCircuit>
[NumPoints] = 452
-8.6560587594400165	60.382378915651223	0	0
-6.3968791902604245	61.990952864053654	0	0
-9.8666843603541672	61.534111191283586	0	0
-6.0533858142789736	72.787408875638491	0	0
-12.992996154466459	71.873725530098355	0	0
-9.6589382242815383	73.361595024839133	0	0
-7.2300746052159184	73.681384195778179	0	0
-12.087801843347158	73.041805853900087	0	0
-7.2681366914025194	60.565115584759248	0	0
-8.5255325672199955	59.391006009910157	0	0
-7.1376104991824985	59.573742679018181	0	0
-23.990396682531344	56.088047423630726	0	0
-22.224409434412195	58.226649758864141	0	0
-25.457946162125388	56.887257747725442	0	0
-24.687046453052318	68.744774769411379	0	0
-31.154119908478698	66.065990747133981	0	0
-28.318573949789577	68.366205100221748	0	0
-26.055098240390343	69.303779508018835	0	0
-30.582049659188812	67.428630692424662	0	0
-22.696981991446069	56.6238042280862	0	0
-23.607713250777429	55.164179787141244	0	0
-22.314298559692155	55.699936591596718	0	0
-37.689789945819264	47.968344839418535	0	0
-36.53746709204065	50.491167915826011	0	0
-39.314199424677078	48.360503126030565	0	0
-41.638497114070837	60.013633643839228	0	0
-47.191961779343679	55.752304064248349	0	0
-45.048341269960765	58.708055032884332	0	0
-43.104628637115269	60.199520385741138	0	0
-46.992053902806262	57.216589680027525	0	0
-36.579097012764699	48.820610755336716	0	0
-37.081028577306277	47.174992744379558	0	0
-35.970335644251712	48.02725866029774	0	0
-48.820610755336716	36.579097012764699	0	0
-48.360503126030565	39.314199424677078	0	0
-50.491167915826011	36.53746709204065	0	0
-55.752304064248349	47.191961779343679	0	0
-60.013633643839228	41.638497114070837	0	0
-58.708055032884332	45.048341269960765	0	0
-57.216589680027525	46.992053902806262	0	0
-60.199520385741138	43.104628637115269	0	0
-47.968344839418535	37.689789945819264	0	0
-48.02725866029774	35.970335644251712	0	0
-47.174992744379558	37.081028577306277	0	0
-56.6238042280862	22.696981991446069	0	0
-56.887257747725442	25.457946162125388	0	0
-58.226649758864141	22.224409434412195	0	0
-66.065990747133981	31.154119908478698	0	0
-68.744774769411379	24.687046453052318	0	0
-68.366205100221748	28.318573949789577	0	0
-67.428630692424662	30.582049659188812	0	0
-69.303779508018835	26.055098240390343	0	0
-56.088047423630726	23.990396682531344	0	0
-55.699936591596718	22.314298559692155	0	0
-55.164179787141244	23.607713250777429	0	0
-60.565115584759248	7.2681366914025194	0	0
-61.534111191283586	9.8666843603541672	0	0
-61.990952864053654	6.3968791902604245	0	0
-71.873725530098355	12.992996154466459	0	0
-72.787408875638491	6.0533858142789736	0	0
-73.361595024839133	9.6589382242815383	0	0
-73.041805853900087	12.087801843347158	0	0
-73.681384195778179	7.2300746052159184	0	0
-60.382378915651223	8.6560587594400165	0	0
-59.573742679018181	7.1376104991824985	0	0
-59.391006009910157	8.5255325672199955	0	0
-60.382378915651223	-8.6560587594400165	0	0
-61.990952864053654	-6.3968791902604245	0	0
-61.534111191283586	-9.8666843603541672	0	0
-72.787408875638491	-6.0533858142789736	0	0
-71.873725530098355	-12.992996154466459	0	0
-73.361595024839133	-9.6589382242815383	0	0
-73.681384195778179	-7.2300746052159184	0	0
-73.041805853900087	-12.087801843347158	0	0
-60.565115584759248	-7.2681366914025194	0	0
-59.391006009910157	-8.5255325672199955	0	0
-59.573742679018181	-7.1376104991824985	0	0
-56.088047423630726	-23.990396682531344	0	0
-58.226649758864141	-22.224409434412195	0	0
-56.887257747725442	-25.457946162125388	0	0
-68.744774769411379	-24.687046453052318	0	0
-66.065990747133981	-31.154119908478698	0	0
-68.366205100221748	-28.318573949789577	0	0
-69.303779508018835	-26.055098240390343	0	0
-67.428630692424662	-30.582049659188812	0	0
-56.6238042280862	-22.696981991446069	0	0
-55.164179787141244	-23.607713250777429	0	0
-55.699936591596718	-22.314298559692155	0	0
-47.968344839418535	-37.689789945819264	0	0
-50.491167915826011	-36.53746709204065	0	0
-48.360503126030565	-39.314199424677078	0	0
-60.013633643839228	-41.638497114070837	0	0
-55.752304064248349	-47.191961779343679	0	0
-58.708055032884332	-45.048341269960765	0	0
-60.199520385741138	-43.104628637115269	0	0
-57.216589680027525	-46.992053902806262	0	0
-48.820610755336716	-36.579097012764699	0	0
-47.174992744379558	-37.081028577306277	0	0
-48.02725866029774	-35.970335644251712	0	0
-36.579097012764699	-48.820610755336716	0	0
-39.314199424677078	-48.360503126030565	0	0
-36.53746709204065	-50.491167915826011	0	0
-47.191961779343679	-55.752304064248349	0	0
-41.638497114070837	-60.013633643839228	0	0
-45.048341269960765	-58.708055032884332	0	0
-46.992053902806262	-57.216589680027525	0	0
-43.104628637115269	-60.199520385741138	0	0
-37.689789945819264	-47.968344839418535	0	0
-35.970335644251712	-48.02725866029774	0	0
-37.081028577306277	-47.174992744379558	0	0
-22.696981991446069	-56.6238042280862	0	0
-25.457946162125388	-56.887257747725442	0	0
-22.224409434412195	-58.226649758864141	0	0
-31.154119908478698	-66.065990747133981	0	0
-24.687046453052318	-68.744774769411379	0	0
-28.318573949789577	-68.366205100221748	0	0
-30.582049659188812	-67.428630692424662	0	0
-26.055098240390343	-69.303779508018835	0	0
-23.990396682531344	-56.088047423630726	0	0
-22.314298559692155	-55.699936591596718	0	0
-23.607713250777429	-55.164179787141244	0	0
-7.2681366914025194	-60.565115584759248	0	0
-9.8666843603541672	-61.534111191283586	0	0
-6.3968791902604245	-61.990952864053654	0	0
-12.992996154466459	-71.873725530098355	0	0
-6.0533858142789736	-72.787408875638491	0	0
-9.6589382242815383	-73.361595024839133	0	0
-12.087801843347158	-73.041805853900087	0	0
-7.2300746052159184	-73.681384195778179	0	0
-8.6560587594400165	-60.382378915651223	0	0
-7.1376104991824985	-59.573742679018181	0	0
-8.5255325672199955	-59.391006009910157	0	0
8.6560587594400165	-60.382378915651223	0	0
6.3968791902604245	-61.990952864053654	0	0
9.8666843603541672	-61.534111191283586	0	0
6.0533858142789736	-72.787408875638491	0	0
12.992996154466459	-71.873725530098355	0	0
9.6589382242815383	-73.361595024839133	0	0
7.2300746052159184	-73.681384195778179	0	0
12.087801843347158	-73.041805853900087	0	0
7.2681366914025194	-60.565115584759248	0	0
8.5255325672199955	-59.391006009910157	0	0
7.1376104991824985	-59.573742679018181	0	0
23.990396682531344	-56.088047423630726	0	0
22.224409434412195	-58.226649758864141	0	0
25.457946162125388	-56.887257747725442	0	0
24.687046453052318	-68.744774769411379	0	0
31.154119908478698	-66.065990747133981	0	0
28.318573949789577	-68.366205100221748	0	0
26.055098240390343	-69.303779508018835	0	0
30.582049659188812	-67.428630692424662	0	0
22.696981991446069	-56.6238042280862	0	0
23.607713250777429	-55.164179787141244	0	0
22.314298559692155	-55.699936591596718	0	0
37.689789945819264	-47.968344839418535	0	0
36.53746709204065	-50.491167915826011	0	0
39.314199424677078	-48.360503126030565	0	0
41.638497114070837	-60.013633643839228	0	0
47.191961779343679	-55.752304064248349	0	0
45.048341269960765	-58.708055032884332	0	0
43.104628637115269	-60.199520385741138	0	0
46.992053902806262	-57.216589680027525	0	0
36.579097012764699	-48.820610755336716	0	0
37.081028577306277	-47.174992744379558	0	0
35.970335644251712	-48.02725866029774	0	0
48.820610755336716	-36.579097012764699	0	0
48.360503126030565	-39.314199424677078	0	0
50.491167915826011	-36.53746709204065	0	0
55.752304064248349	-47.191961779343679	0	0
60.013633643839228	-41.638497114070837	0	0
58.708055032884332	-45.048341269960765	0	0
57.216589680027525	-46.992053902806262	0	0
60.199520385741138	-43.104628637115269	0	0
47.968344839418535	-37.689789945819264	0	0
48.02725866029774	-35.970335644251712	0	0
47.174992744379558	-37.081028577306277	0	0
56.6238042280862	-22.696981991446069	0	0
56.887257747725442	-25.457946162125388	0	0
58.226649758864141	-22.224409434412195	0	0
66.065990747133981	-31.154119908478698	0	0
68.744774769411379	-24.687046453052318	0	0
68.366205100221748	-28.318573949789577	0	0
67.428630692424662	-30.582049659188812	0	0
69.303779508018835	-26.055098240390343	0	0
56.088047423630726	-23.990396682531344	0	0
55.699936591596718	-22.314298559692155	0	0
55.164179787141244	-23.607713250777429	0	0
60.565115584759248	-7.2681366914025194	0	0
61.534111191283586	-9.8666843603541672	0	0
61.990952864053654	-6.3968791902604245	0	0
71.873725530098355	-12.992996154466459	0	0
72.787408875638491	-6.0533858142789736	0	0
73.361595024839133	-9.6589382242815383	0	0
73.041805853900087	-12.087801843347158	0	0
73.681384195778179	-7.2300746052159184	0	0
60.382378915651223	-8.6560587594400165	0	0
59.573742679018181	-7.1376104991824985	0	0
59.391006009910157	-8.5255325672199955	0	0
60.382378915651223	8.6560587594400165	0	0
61.990952864053654	6.3968791902604245	0	0
61.534111191283586	9.8666843603541672	0	0
72.787408875638491	6.0533858142789736	0	0
71.873725530098355	12.992996154466459	0	0
73.361595024839133	9.6589382242815383	0	0
73.681384195778179	7.2300746052159184	0	0
73.041805853900087	12.087801843347158	0	0
60.565115584759248	7.2681366914025194	0	0
59.391006009910157	8.5255325672199955	0	0
59.573742679018181	7.1376104991824985	0	0
56.088047423630726	23.990396682531344	0	0
58.226649758864141	22.224409434412195	0	0
56.887257747725442	25.457946162125388	0	0
68.744774769411379	24.687046453052318	0	0
66.065990747133981	31.154119908478698	0	0
68.366205100221748	28.318573949789577	0	0
69.303779508018835	26.055098240390343	0	0
67.428630692424662	30.582049659188812	0	0
56.6238042280862	22.696981991446069	0	0
55.164179787141244	23.607713250777429	0	0
55.699936591596718	22.314298559692155	0	0
47.968344839418535	37.689789945819264	0	0
50.491167915826011	36.53746709204065	0	0
48.360503126030565	39.314199424677078	0	0
60.013633643839228	41.638497114070837	0	0
55.752304064248349	47.191961779343679	0	0
58.708055032884332	45.048341269960765	0	0
60.199520385741138	43.104628637115269	0	0
57.216589680027525	46.992053902806262	0	0
48.820610755336716	36.579097012764699	0	0
47.174992744379558	37.081028577306277	0	0
48.02725866029774	35.970335644251712	0	0
36.579097012764699	48.820610755336716	0	0
39.314199424677078	48.360503126030565	0	0
36.53746709204065	50.491167915826011	0	0
47.191961779343679	55.752304064248349	0	0
41.638497114070837	60.013633643839228	0	0
45.048341269960765	58.708055032884332	0	0
46.992053902806262	57.216589680027525	0	0
43.104628637115269	60.199520385741138	0	0
37.689789945819264	47.968344839418535	0	0
35.970335644251712	48.02725866029774	0	0
37.081028577306277	47.174992744379558	0	0
22.696981991446069	56.6238042280862	0	0
25.457946162125388	56.887257747725442	0	0
22.224409434412195	58.226649758864141	0	0
31.154119908478698	66.065990747133981	0	0
24.687046453052318	68.744774769411379	0	0
28.318573949789577	68.366205100221748	0	0
30.582049659188812	67.428630692424662	0	0
26.055098240390343	69.303779508018835	0	0
23.990396682531344	56.088047423630726	0	0
22.314298559692155	55.699936591596718	0	0
23.607713250777429	55.164179787141244	0	0
7.2681366914025194	60.565115584759248	0	0
9.8666843603541672	61.534111191283586	0	0
6.3968791902604245	61.990952864053654	0	0
12.992996154466459	71.873725530098355	0	0
6.0533858142789736	72.787408875638491	0	0
9.6589382242815383	73.361595024839133	0	0
12.087801843347158	73.041805853900087	0	0
7.2300746052159184	73.681384195778179	0	0
8.6560587594400165	60.382378915651223	0	0
7.1376104991824985	59.573742679018181	0	0
8.5255325672199955	59.391006009910157	0	0
84	0	0	0
-84	0	0	0
0	49.992155069974942	0	0
3.9993724055979953	53.991527475572937	0	0
-3.9993724055979953	53.991527475572937	0	0
0	57.990899881170932	0	0
0.99984310139949883	57.990899881170932	0	0
-0.99984310139949883	57.990899881170932	0	0
-0.99984310139949883	58.990742982570431	0	0
0.99984310139949883	58.990742982570431	0	0
-13.489838556684482	48.14444892971644	0	0
-10.717469726841927	53.075191928628513	0	0
-18.420581555596556	50.916817759558995	0	0
-15.648212725754	55.847560758471069	0	0
-14.685323747159671	56.11735752960476	0	0
-16.611101704348329	55.577763987337377	0	0
-16.880898475482017	56.540652965931706	0	0
-14.955120518293361	57.080246508199089	0	0
-25.979196905605583	42.720800629073686	0	0
-24.639868607728133	48.216800431848029	0	0
-31.475196708379926	44.060128926951137	0	0
-30.135868410502479	49.556128729725472	0	0
-29.281452397921004	50.075712667837585	0	0
-30.990284423083953	49.036544791613359	0	0
-31.509868361196066	49.890960804194833	0	0
-29.801036336033118	50.93012868041906	0	0
-36.541775372749626	34.12764671268129	0	0
-36.73490566555509	39.781200479515768	0	0
-42.195329139584103	33.934516419875827	0	0
-42.388459432389567	39.588070186710297	0	0
-41.705906498135938	40.318905694165288	0	0
-43.071012366643195	38.857234679255306	0	0
-43.801847874098186	39.539787613508935	0	0
-42.436742005590929	41.001458628418916	0	0
-44.393958151123535	23.00325170720172	0	0
-46.105214666637281	28.395028495867745	0	0
-49.785734939789563	21.291995191687977	0	0
-51.496991455303302	26.683771980353995	0	0
-51.036926421159265	27.571651143376467	0	0
-51.957056489447339	25.795892817331524	0	0
-52.844935652469808	26.255957851475557	0	0
-51.924805584181733	28.031716177520501	0	0
-48.951962233068372	10.172800652544082	0	0
-52.054295159510318	14.902781683393076	0	0
-53.681943263917375	7.0704677261021374	0	0
-56.784276190359314	11.800448756951134	0	0
-56.580820177308432	12.779488001612501	0	0
-56.987732203410197	10.821409512289767	0	0
-57.966771448071562	11.024865525340649	0	0
-57.559859421969797	12.982944014663383	0	0
-49.878170237666801	-3.4121206682335563	0	0
-54.141393510138833	0.30516329732110314	0	0
-53.595454203221458	-7.6753439407055852	0	0
-57.85867747569349	-3.9580599751509253	0	0
-57.926919889058162	-2.9604965703975892	0	0
-57.790435062328818	-4.955623379904261	0	0
-58.787998467082154	-5.0238657932689321	0	0
-58.924483293811498	-3.0287389837622603	0	0
-47.112174664540255	-16.743980599859658	0	0
-52.220667085692249	-14.314525074685211	0	0
-49.541630189714702	-21.852473021011651	0	0
-54.650122610866696	-19.423017495837204	0	0
-54.985002222863891	-18.480774002546397	0	0
-54.3152429988695	-20.365260989128011	0	0
-55.257486492160304	-20.700140601125202	0	0
-55.927245716154694	-18.815653614543589	0	0
-40.848403389686247	-28.834014386143757	0	0
-46.422996811752647	-27.87286326586036	0	0
-41.809554509969651	-34.408607808210157	0	0
-47.384147932036051	-33.44745668792676	0	0
-47.960828219758923	-32.630488620133036	0	0
-46.807467644313178	-34.264424755720484	0	0
-47.624435712106902	-34.841105043443356	0	0
-48.777796287552647	-33.207168907855909	0	0
-31.554392781284303	-38.785517641151543	0	0
-37.181585615079172	-39.364007629940915	0	0
-30.975902792494924	-44.412710474946408	0	0
-36.603095626289793	-44.991200463735787	0	0
-37.378805979112826	-44.3601126081101	0	0
-35.82738527346676	-45.622288319361473	0	0
-36.458473129092447	-46.397998672184507	0	0
-38.009893834738513	-45.135822960933133	0	0
-19.920054447496039	-45.860043319781028	0	0
-25.182462268878204	-47.935242429563822	0	0
-17.844855337713241	-51.122451141163189	0	0
-23.107263159095403	-53.197650250945991	0	0
-24.024464025491024	-52.799249161996073	0	0
-22.190062292699782	-53.596051339895908	0	0
-22.588463381649703	-54.513252206291526	0	0
-24.422865114440945	-53.716450028391691	0	0
-6.8083324548100732	-49.530824987262058	0	0
-11.315465050175844	-52.94862438985821	0	0
-3.3905330522139145	-54.037957582627826	0	0
-7.8976656475796849	-57.455756985223985	0	0
-8.8882821473249258	-57.319590336127781	0	0
-6.907049147834444	-57.591923634320189	0	0
-7.0432157969306459	-58.582540134065432	0	0
-9.0244487964211277	-58.310206835873025	0	0
6.8083324548100732	-49.530824987262058	0	0
3.3905330522139145	-54.037957582627826	0	0
11.315465050175844	-52.94862438985821	0	0
7.8976656475796849	-57.455756985223985	0	0
6.907049147834444	-57.591923634320189	0	0
8.8882821473249258	-57.319590336127781	0	0
9.0244487964211277	-58.310206835873025	0	0
7.0432157969306459	-58.582540134065432	0	0
19.920054447496039	-45.860043319781035	0	0
17.844855337713241	-51.122451141163204	0	0
25.182462268878204	-47.935242429563836	0	0
23.107263159095403	-53.197650250945998	0	0
22.190062292699782	-53.596051339895915	0	0
24.024464025491024	-52.79924916199608	0	0
24.422865114440945	-53.716450028391698	0	0
22.588463381649703	-54.513252206291533	0	0
31.554392781284303	-38.785517641151543	0	0
30.975902792494924	-44.412710474946408	0	0
37.181585615079172	-39.364007629940915	0	0
36.603095626289793	-44.991200463735787	0	0
35.82738527346676	-45.622288319361473	0	0
37.378805979112826	-44.3601126081101	0	0
38.009893834738513	-45.135822960933133	0	0
36.458473129092447	-46.397998672184507	0	0
40.848403389686268	-28.834014386143757	0	0
41.809554509969672	-34.408607808210157	0	0
46.422996811752668	-27.872863265860357	0	0
47.384147932036072	-33.44745668792676	0	0
46.807467644313199	-34.264424755720484	0	0
47.960828219758945	-32.630488620133036	0	0
48.777796287552668	-33.207168907855909	0	0
47.624435712106923	-34.841105043443356	0	0
47.112174664540255	-16.743980599859636	0	0
49.541630189714702	-21.85247302101163	0	0
52.220667085692249	-14.314525074685189	0	0
54.650122610866696	-19.423017495837179	0	0
54.3152429988695	-20.365260989127986	0	0
54.985002222863891	-18.480774002546372	0	0
55.927245716154694	-18.815653614543564	0	0
55.257486492160304	-20.700140601125177	0	0
49.878170237666801	-3.4121206682335563	0	0
53.595454203221458	-7.6753439407055852	0	0
54.141393510138833	0.30516329732110314	0	0
57.85867747569349	-3.9580599751509253	0	0
57.790435062328818	-4.955623379904261	0	0
57.926919889058162	-2.9604965703975892	0	0
58.924483293811498	-3.0287389837622603	0	0
58.787998467082154	-5.0238657932689321	0	0
48.951962233068372	10.17280065254409	0	0
53.681943263917368	7.070467726102148	0	0
52.05429515951031	14.902781683393087	0	0
56.784276190359307	11.800448756951145	0	0
56.987732203410189	10.821409512289778	0	0
56.580820177308425	12.779488001612512	0	0
57.55985942196979	12.982944014663394	0	0
57.966771448071555	11.02486552534066	0	0
44.393958151123549	23.003251707201706	0	0
49.785734939789563	21.291995191687956	0	0
46.105214666637295	28.395028495867724	0	0
51.496991455303316	26.683771980353978	0	0
51.957056489447353	25.795892817331506	0	0
51.036926421159279	27.57165114337645	0	0
51.924805584181748	28.031716177520483	0	0
52.844935652469822	26.255957851475539	0	0
36.541775372749626	34.12764671268129	0	0
42.195329139584103	33.934516419875827	0	0
36.73490566555509	39.781200479515768	0	0
42.388459432389567	39.588070186710297	0	0
43.071012366643195	38.857234679255306	0	0
41.705906498135938	40.318905694165288	0	0
42.436742005590929	41.001458628418916	0	0
43.801847874098186	39.539787613508935	0	0
25.979196905605573	42.720800629073693	0	0
31.475196708379915	44.060128926951137	0	0
24.639868607728122	48.216800431848029	0	0
30.135868410502464	49.556128729725479	0	0
30.990284423083938	49.036544791613366	0	0
29.28145239792099	50.075712667837593	0	0
29.8010363360331	50.930128680419067	0	0
31.509868361196048	49.89096080419484	0	0
13.489838556684502	48.14444892971644	0	0
18.420581555596577	50.916817759558995	0	0
10.717469726841948	53.075191928628513	0	0
15.648212725754023	55.847560758471069	0	0
16.611101704348354	55.577763987337377	0	0
14.685323747159694	56.11735752960476	0	0
14.955120518293384	57.080246508199089	0	0
16.880898475482045	56.540652965931706	0	0
16.666666666666664	0	0	0
-16.666666666666664	0	0	0
[NumSegments] = 260
7	5	-1	0	0	0
5	6	-1	0	0	0
3	1	-1	0	0	0
4	2	-1	0	0	0
8	0	-1	0	0	0
0	9	-1	0	0	0
8	10	-1	0	0	0
18	16	-1	0	0	0
16	17	-1	0	0	0
14	12	-1	0	0	0
15	13	-1	0	0	0
19	11	-1	0	0	0
11	20	-1	0	0	0
19	21	-1	0	0	0
29	27	-1	0	0	0
27	28	-1	0	0	0
25	23	-1	0	0	0
26	24	-1	0	0	0
30	22	-1	0	0	0
22	31	-1	0	0	0
30	32	-1	0	0	0
40	38	-1	0	0	0
38	39	-1	0	0	0
36	34	-1	0	0	0
37	35	-1	0	0	0
41	33	-1	0	0	0
33	42	-1	0	0	0
41	43	-1	0	0	0
51	49	-1	0	0	0
49	50	-1	0	0	0
47	45	-1	0	0	0
48	46	-1	0	0	0
52	44	-1	0	0	0
44	53	-1	0	0	0
52	54	-1	0	0	0
62	60	-1	0	0	0
60	61	-1	0	0	0
58	56	-1	0	0	0
59	57	-1	0	0	0
63	55	-1	0	0	0
55	64	-1	0	0	0
63	65	-1	0	0	0
73	71	-1	0	0	0
71	72	-1	0	0	0
69	67	-1	0	0	0
70	68	-1	0	0	0
74	66	-1	0	0	0
66	75	-1	0	0	0
74	76	-1	0	0	0
84	82	-1	0	0	0
82	83	-1	0	0	0
80	78	-1	0	0	0
81	79	-1	0	0	0
85	77	-1	0	0	0
77	86	-1	0	0	0
85	87	-1	0	0	0
95	93	-1	0	0	0
93	94	-1	0	0	0
91	89	-1	0	0	0
92	90	-1	0	0	0
96	88	-1	0	0	0
88	97	-1	0	0	0
96	98	-1	0	0	0
106	104	-1	0	0	0
104	105	-1	0	0	0
102	100	-1	0	0	0
103	101	-1	0	0	0
107	99	-1	0	0	0
99	108	-1	0	0	0
107	109	-1	0	0	0
117	115	-1	0	0	0
115	116	-1	0	0	0
113	111	-1	0	0	0
114	112	-1	0	0	0
118	110	-1	0	0	0
110	119	-1	0	0	0
118	120	-1	0	0	0
128	126	-1	0	0	0
126	127	-1	0	0	0
124	122	-1	0	0	0
125	123	-1	0	0	0
129	121	-1	0	0	0
121	130	-1	0	0	0
129	131	-1	0	0	0
139	137	-1	0	0	0
137	138	-1	0	0	0
135	133	-1	0	0	0
136	134	-1	0	0	0
140	132	-1	0	0	0
132	141	-1	0	0	0
140	142	-1	0	0	0
150	148	-1	0	0	0
148	149	-1	0	0	0
146	144	-1	0	0	0
147	145	-1	0	0	0
151	143	-1	0	0	0
143	152	-1	0	0	0
151	153	-1	0	0	0
161	159	-1	0	0	0
159	160	-1	0	0	0
157	155	-1	0	0	0
158	156	-1	0	0	0
162	154	-1	0	0	0
154	163	-1	0	0	0
162	164	-1	0	0	0
172	170	-1	0	0	0
170	171	-1	0	0	0
168	166	-1	0	0	0
169	167	-1	0	0	0
173	165	-1	0	0	0
165	174	-1	0	0	0
173	175	-1	0	0	0
183	181	-1	0	0	0
181	182	-1	0	0	0
179	177	-1	0	0	0
180	178	-1	0	0	0
184	176	-1	0	0	0
176	185	-1	0	0	0
184	186	-1	0	0	0
194	192	-1	0	0	0
192	193	-1	0	0	0
190	188	-1	0	0	0
191	189	-1	0	0	0
195	187	-1	0	0	0
187	196	-1	0	0	0
195	197	-1	0	0	0
205	203	-1	0	0	0
203	204	-1	0	0	0
201	199	-1	0	0	0
202	200	-1	0	0	0
206	198	-1	0	0	0
198	207	-1	0	0	0
206	208	-1	0	0	0
216	214	-1	0	0	0
214	215	-1	0	0	0
212	210	-1	0	0	0
213	211	-1	0	0	0
217	209	-1	0	0	0
209	218	-1	0	0	0
217	219	-1	0	0	0
227	225	-1	0	0	0
225	226	-1	0	0	0
223	221	-1	0	0	0
224	222	-1	0	0	0
228	220	-1	0	0	0
220	229	-1	0	0	0
228	230	-1	0	0	0
238	236	-1	0	0	0
236	237	-1	0	0	0
234	232	-1	0	0	0
235	233	-1	0	0	0
239	231	-1	0	0	0
231	240	-1	0	0	0
239	241	-1	0	0	0
249	247	-1	0	0	0
247	248	-1	0	0	0
245	243	-1	0	0	0
246	244	-1	0	0	0
250	242	-1	0	0	0
242	251	-1	0	0	0
250	252	-1	0	0	0
260	258	-1	0	0	0
258	259	-1	0	0	0
256	254	-1	0	0	0
257	255	-1	0	0	0
261	253	-1	0	0	0
253	262	-1	0	0	0
261	263	-1	0	0	0
271	269	-1	0	0	0
269	270	-1	0	0	0
271	272	-1	0	0	0
270	273	-1	0	0	0
279	277	-1	0	0	0
277	278	-1	0	0	0
279	280	-1	0	0	0
278	281	-1	0	0	0
287	285	-1	0	0	0
285	286	-1	0	0	0
287	288	-1	0	0	0
286	289	-1	0	0	0
295	293	-1	0	0	0
293	294	-1	0	0	0
295	296	-1	0	0	0
294	297	-1	0	0	0
303	301	-1	0	0	0
301	302	-1	0	0	0
303	304	-1	0	0	0
302	305	-1	0	0	0
311	309	-1	0	0	0
309	310	-1	0	0	0
311	312	-1	0	0	0
310	313	-1	0	0	0
319	317	-1	0	0	0
317	318	-1	0	0	0
319	320	-1	0	0	0
318	321	-1	0	0	0
327	325	-1	0	0	0
325	326	-1	0	0	0
327	328	-1	0	0	0
326	329	-1	0	0	0
335	333	-1	0	0	0
333	334	-1	0	0	0
335	336	-1	0	0	0
334	337	-1	0	0	0
343	341	-1	0	0	0
341	342	-1	0	0	0
343	344	-1	0	0	0
342	345	-1	0	0	0
351	349	-1	0	0	0
349	350	-1	0	0	0
351	352	-1	0	0	0
350	353	-1	0	0	0
359	357	-1	0	0	0
357	358	-1	0	0	0
359	360	-1	0	0	0
358	361	-1	0	0	0
367	365	-1	0	0	0
365	366	-1	0	0	0
367	368	-1	0	0	0
366	369	-1	0	0	0
375	373	-1	0	0	0
373	374	-1	0	0	0
375	376	-1	0	0	0
374	377	-1	0	0	0
383	381	-1	0	0	0
381	382	-1	0	0	0
383	384	-1	0	0	0
382	385	-1	0	0	0
391	389	-1	0	0	0
389	390	-1	0	0	0
391	392	-1	0	0	0
390	393	-1	0	0	0
399	397	-1	0	0	0
397	398	-1	0	0	0
399	400	-1	0	0	0
398	401	-1	0	0	0
407	405	-1	0	0	0
405	406	-1	0	0	0
407	408	-1	0	0	0
406	409	-1	0	0	0
415	413	-1	0	0	0
413	414	-1	0	0	0
415	416	-1	0	0	0
414	417	-1	0	0	0
423	421	-1	0	0	0
421	422	-1	0	0	0
423	424	-1	0	0	0
422	425	-1	0	0	0
431	429	-1	0	0	0
429	430	-1	0	0	0
431	432	-1	0	0	0
430	433	-1	0	0	0
439	437	-1	0	0	0
437	438	-1	0	0	0
439	440	-1	0	0	0
438	441	-1	0	0	0
447	445	-1	0	0	0
445	446	-1	0	0	0
447	448	-1	0	0	0
446	449	-1	0	0	0
[NumArcSegments] = 239
7	4	80	1	0	0	0	1
3	6	80	1	0	0	0	1
2	0	70	1	0	0	0	1
8	1	70	1	0	0	0	1
18	15	80	1	0	0	0	1
14	17	80	1	0	0	0	1
13	11	70	1	0	0	0	1
19	12	70	1	0	0	0	1
29	26	80	1	0	0	0	1
25	28	80	1	0	0	0	1
24	22	70	1	0	0	0	1
30	23	70	1	0	0	0	1
40	37	80	1	0	0	0	1
36	39	80	1	0	0	0	1
35	33	70	1	0	0	0	1
41	34	70	1	0	0	0	1
51	48	80	1	0	0	0	1
47	50	80	1	0	0	0	1
46	44	70	1	0	0	0	1
52	45	70	1	0	0	0	1
62	59	80	1	0	0	0	1
58	61	80	1	0	0	0	1
57	55	70	1	0	0	0	1
63	56	70	1	0	0	0	1
73	70	80	1	0	0	0	1
69	72	80	1	0	0	0	1
68	66	70	1	0	0	0	1
74	67	70	1	0	0	0	1
84	81	80	1	0	0	0	1
80	83	80	1	0	0	0	1
79	77	70	1	0	0	0	1
85	78	70	1	0	0	0	1
95	92	80	1	0	0	0	1
91	94	80	1	0	0	0	1
90	88	70	1	0	0	0	1
96	89	70	1	0	0	0	1
106	103	80	1	0	0	0	1
102	105	80	1	0	0	0	1
101	99	70	1	0	0	0	1
107	100	70	1	0	0	0	1
117	114	80	1	0	0	0	1
113	116	80	1	0	0	0	1
112	110	70	1	0	0	0	1
118	111	70	1	0	0	0	1
128	125	80	1	0	0	0	1
124	127	80	1	0	0	0	1
123	121	70	1	0	0	0	1
129	122	70	1	0	0	0	1
139	136	80	1	0	0	0	1
135	138	80	1	0	0	0	1
134	132	70	1	0	0	0	1
140	133	70	1	0	0	0	1
150	147	80	1	0	0	0	1
146	149	80	1	0	0	0	1
145	143	70	1	0	0	0	1
151	144	70	1	0	0	0	1
161	158	80	1	0	0	0	1
157	160	80	1	0	0	0	1
156	154	70	1	0	0	0	1
162	155	70	1	0	0	0	1
172	169	80	1	0	0	0	1
168	171	80	1	0	0	0	1
167	165	70	1	0	0	0	1
173	166	70	1	0	0	0	1
183	180	80	1	0	0	0	1
179	182	80	1	0	0	0	1
178	176	70	1	0	0	0	1
184	177	70	1	0	0	0	1
194	191	80	1	0	0	0	1
190	193	80	1	0	0	0	1
189	187	70	1	0	0	0	1
195	188	70	1	0	0	0	1
205	202	80	1	0	0	0	1
201	204	80	1	0	0	0	1
200	198	70	1	0	0	0	1
206	199	70	1	0	0	0	1
216	213	80	1	0	0	0	1
212	215	80	1	0	0	0	1
211	209	70	1	0	0	0	1
217	210	70	1	0	0	0	1
227	224	80	1	0	0	0	1
223	226	80	1	0	0	0	1
222	220	70	1	0	0	0	1
228	221	70	1	0	0	0	1
238	235	80	1	0	0	0	1
234	237	80	1	0	0	0	1
233	231	70	1	0	0	0	1
239	232	70	1	0	0	0	1
249	246	80	1	0	0	0	1
245	248	80	1	0	0	0	1
244	242	70	1	0	0	0	1
250	243	70	1	0	0	0	1
260	257	80	1	0	0	0	1
256	259	80	1	0	0	0	1
255	253	70	1	0	0	0	1
261	254	70	1	0	0	0	1
9	21	15	1	0	0	0	1
20	32	15	1	0	0	0	1
31	43	15	1	0	0	0	1
42	54	15	1	0	0	0	1
53	65	15	1	0	0	0	1
64	76	15	1	0	0	0	1
75	87	15	1	0	0	0	1
86	98	15	1	0	0	0	1