[Format]      =  4.0
[Frequency]   =  50
[Precision]   =  1e-008
[MinAngle]    =  30
[DoSmartMesh] =  1
[Depth]       =  1
[LengthUnits] =  centimeters
[ProblemType] =  planar
[Coordinates] =  cartesian
[ACSolver]    =  0
[PrevType]    =  0
[PrevSoln]    =  ""
[Comment]     =  "Add comments here."
[PointProps]   = 0
[BdryProps]   = 1
  <BeginBdry>
    <BdryName> = "A1"
    <BdryType> = 0
    <A_0> = 0
    <A_1> = 0
    <A_2> = 0
    <Phi> = 0
    <c0> = 0
    <c0i> = 0
    <c1> = 0
    <c1i> = 0
    <Mu_ssd> = 0
    <Sigma_ssd> = 0
    <innerangle> = 0
    <outerangle> = 0
  <EndBdry>
[BlockProps]  = 6
  <BeginBlock>
    <BlockName> = "M-19 Steel"
    <Mu_x> = 5000
    <Mu_y> = 5000
    <H_c> = 0
    <H_cAngle> = 0
    <J_re> = 0
    <J_im> = 0
    <Sigma> = 0
    <d_lam> = 0
    <Phi_h> = 0
    <Phi_hx> = 0
    <Phi_hy> = 0
    <LamType> = 0
    <LamFill> = 1
    <NStrands> = 0
    <WireD> = 0
    <BHPoints> = 0
  <EndBlock>
  <BeginBlock>
    <BlockName> = "Copper"
    <Mu_x> = 58
    <Mu_y> = 58
    <H_c> = 0
    <H_cAngle> = 0
    <J_re> = 0
    <J_im> = 0
    <Sigma> = 0
    <d_lam> = 0
    <Phi_h> = 0
    <Phi_hx> = 0
    <Phi_hy> = 0
    <LamType> = 0
    <LamFill> = 1
    <NStrands> = 0
    <WireD> = 0
    <BHPoints> = 0
  <EndBlock>
  <BeginBlock>
    <BlockName> = "Aluminum"
    <Mu_x> = 37
    <Mu_y> = 37
    <H_c> = 0
    <H_cAngle> = 0
    <J_re> = 0
    <J_im> = 0
    <Sigma> = 0
    <d_lam> = 0
    <Phi_h> = 0
    <Phi_hx> = 0
    <Phi_hy> = 0
    <LamType> = 0
    <LamFill> = 1
    <NStrands> = 0
    <WireD> = 0
    <BHPoints> = 0
  <EndBlock>
  <BeginBlock>
    <BlockName> = "Air"
    <Mu_x> = 1
    <Mu_y> = 1
    <H_c> = 1
    <H_cAngle> = 0
    <J_re> = 0
    <J_im> = 0
    <Sigma> = 0
    <d_lam> = 0
    <Phi_h> = 0
    <Phi_hx> = 0
    <Phi_hy> = 0
    <LamType> = 0
    <LamFill> = 1
    <NStrands> = 0
    <WireD> = 0
    <BHPoints> = 0
  <EndBlock>
  <BeginBlock>
    <BlockName> = "M-19 Steel"
    <Mu_x> = 5000
    <Mu_y> = 5000
    <H_c> = 0
    <H_cAngle> = 0
    <J_re> = 0
    <J_im> = 0
    <Sigma> = 0
    <d_lam> = 0
    <Phi_h> = 0
    <Phi_hx> = 0
    <Phi_hy> = 0
    <LamType> = 0
    <LamFill> = 1
    <NStrands> = 0
    <WireD> = 0
    <BHPoints> = 0
  <EndBlock>
  <BeginBlock>
    <BlockName> = "Air"
    <Mu_x> = 1
    <Mu_y> = 1
    <H_c> = 0
    <H_cAngle> = 0
    <J_re> = 0
    <J_im> = 0
    <Sigma> = 0
    <d_lam> = 0
    <Phi_h> = 0
    <Phi_hx> = 0
    <Phi_hy> = 0
    <LamType> = 0
    <LamFill> = 1
    <NStrands> = 0
    <WireD> = 0
    <BHPoints> = 0
  <EndBlock>
[CircuitProps]  = 6
  <BeginCircuit>
    <CircuitName> = "A"
    <TotalAmps_re> = 1
    <TotalAmps_im> = 0
    <CircuitType> = 1
  <EndCircuit>
  <BeginCircuit>
    <CircuitName> = "C"
    <TotalAmps_re> = 1
    <TotalAmps_im> = 0
    <CircuitType> = 1
  <EndCircuit>
  <BeginCircuit>
    <CircuitName> = "B"
    <TotalAmps_re> = 1
    <TotalAmps_im> = 0
    <CircuitType> = 1
  <EndCircuit>
  <BeginCircuit>
    <CircuitName> = "A1"
    <TotalAmps_re> = -1
    <TotalAmps_im> = -0
    <CircuitType> = 1
  <EndCircuit>
  <BeginCircuit>
    <CircuitName> = "C1"
    <TotalAmps_re> = -1
    <TotalAmps_im> = -0
    <CircuitType> = 1
  <EndCircuit>
  <BeginCircuit>
    <CircuitName> = "B1"
    <TotalAmps_re> = -1
    <TotalAmps_im> = -0
    <CircuitType> = 1
  <EndCircuit>
[NumPoints] = 408
-8.8295490179447036	60.359536832012715	0	0
-5.9793519139391291	60.734799634645277	0	0
-9.9448435369034058	60.212694865765194	0	0
-6.1891330541877956	73.818436697609201	0	0
-13.128743394375281	72.904753352069065	0	0
-9.6589382242815383	73.361595024839133	0	0
-7.0565843467112312	73.704226279416687	0	0
-12.261292101851845	73.018963770261578	0	0
-7.0946464328978323	60.587957668397756	0	0
-24.152073518917003	56.021077823073789	0	0
-21.495954064009741	57.121292689366292	0	0
-25.191424609967672	55.590558962350634	0	0
-25.085037222076387	69.705597111360447	0	0
-31.552110677502768	67.026813089083049	0	0
-28.318573949789577	68.366205100221748	0	0
-25.893421404004684	69.370749108575765	0	0
-30.743726495574471	67.361661091867731	0	0
-22.53530515506041	56.690773828643138	0	0
-37.828626562451085	47.861811599928764	0	0
-35.547739289214029	49.612000534403592	0	0
-38.721147669369934	47.176955060351659	0	0
-42.271608937324345	60.838719822679771	0	0
-47.825073602597186	56.577390243088892	0	0
-45.048341269960765	58.708055032884332	0	0
-42.965792020483448	60.306053625230916	0	0
-47.130890519438083	57.110056440537747	0	0
-36.440260396132878	48.927143994826487	0	0
-48.927143994826487	36.440260396132878	0	0
-47.176955060351659	38.721147669369934	0	0
-49.612000534403592	35.547739289214029	0	0
-56.577390243088892	47.825073602597186	0	0
-60.838719822679771	42.271608937324345	0	0
-58.708055032884332	45.048341269960765	0	0
-57.110056440537747	47.130890519438083	0	0
-60.306053625230916	42.965792020483448	0	0
-47.861811599928764	37.828626562451085	0	0
-56.690773828643138	22.53530515506041	0	0
-55.590558962350634	25.191424609967672	0	0
-57.121292689366292	21.495954064009741	0	0
-67.026813089083049	31.552110677502768	0	0
-69.705597111360447	25.085037222076387	0	0
-68.366205100221748	28.318573949789577	0	0
-67.361661091867731	30.743726495574471	0	0
-69.370749108575765	25.893421404004684	0	0
-56.021077823073789	24.152073518917003	0	0
-60.587957668397756	7.0946464328978323	0	0
-60.212694865765194	9.9448435369034058	0	0
-60.734799634645277	5.9793519139391291	0	0
-72.904753352069065	13.128743394375281	0	0
-73.818436697609201	6.1891330541877956	0	0
-73.361595024839133	9.6589382242815383	0	0
-73.018963770261578	12.261292101851845	0	0
-73.704226279416687	7.0565843467112312	0	0
-60.359536832012715	8.8295490179447036	0	0
-60.359536832012715	-8.8295490179447036	0	0
-60.734799634645277	-5.9793519139391291	0	0
-60.212694865765194	-9.9448435369034058	0	0
-73.818436697609201	-6.1891330541877956	0	0
-72.904753352069065	-13.128743394375281	0	0
-73.361595024839133	-9.6589382242815383	0	0
-73.704226279416687	-7.0565843467112312	0	0
-73.018963770261578	-12.261292101851845	0	0
-60.587957668397756	-7.0946464328978323	0	0
-56.021077823073789	-24.152073518917003	0	0
-57.121292689366292	-21.495954064009741	0	0
-55.590558962350634	-25.191424609967672	0	0
-69.705597111360447	-25.085037222076387	0	0
-67.026813089083049	-31.552110677502768	0	0
-68.366205100221748	-28.318573949789577	0	0
-69.370749108575765	-25.893421404004684	0	0
-67.361661091867731	-30.743726495574471	0	0
-56.690773828643138	-22.53530515506041	0	0
-47.861811599928764	-37.828626562451085	0	0
-49.612000534403592	-35.547739289214029	0	0
-47.176955060351659	-38.721147669369934	0	0
-60.838719822679771	-42.271608937324345	0	0
-56.577390243088892	-47.825073602597186	0	0
-58.708055032884332	-45.048341269960765	0	0
-60.306053625230916	-42.965792020483448	0	0
-57.110056440537747	-47.130890519438083	0	0
-48.927143994826487	-36.440260396132878	0	0
-36.440260396132878	-48.927143994826487	0	0
-38.721147669369934	-47.176955060351659	0	0
-35.547739289214029	-49.612000534403592	0	0
-47.825073602597186	-56.577390243088892	0	0
-42.271608937324345	-60.838719822679771	0	0
-45.048341269960765	-58.708055032884332	0	0
-47.130890519438083	-57.110056440537747	0	0
-42.965792020483448	-60.306053625230916	0	0
-37.828626562451085	-47.861811599928764	0	0
-22.53530515506041	-56.690773828643138	0	0
-25.191424609967672	-55.590558962350634	0	0
-21.495954064009741	-57.121292689366292	0	0
-31.552110677502768	-67.026813089083049	0	0
-25.085037222076387	-69.705597111360447	0	0
-28.318573949789577	-68.366205100221748	0	0
-30.743726495574471	-67.361661091867731	0	0
-25.893421404004684	-69.370749108575765	0	0
-24.152073518917003	-56.021077823073789	0	0
-7.0946464328978323	-60.587957668397756	0	0
-9.9448435369034058	-60.212694865765194	0	0
-5.9793519139391291	-60.734799634645277	0	0
-13.128743394375281	-72.904753352069065	0	0
-6.1891330541877956	-73.818436697609201	0	0
-9.6589382242815383	-73.361595024839133	0	0
-12.261292101851845	-73.018963770261578	0	0
-7.0565843467112312	-73.704226279416687	0	0
-8.8295490179447036	-60.359536832012715	0	0
8.8295490179447036	-60.359536832012715	0	0
5.9793519139391291	-60.734799634645277	0	0
9.9448435369034058	-60.212694865765194	0	0
6.1891330541877956	-73.818436697609201	0	0
13.128743394375281	-72.904753352069065	0	0
9.6589382242815383	-73.361595024839133	0	0
7.0565843467112312	-73.704226279416687	0	0
12.261292101851845	-73.018963770261578	0	0
7.0946464328978323	-60.587957668397756	0	0
24.152073518917003	-56.021077823073789	0	0
21.495954064009741	-57.121292689366292	0	0
25.191424609967672	-55.590558962350634	0	0
25.085037222076387	-69.705597111360447	0	0
31.552110677502768	-67.026813089083049	0	0
28.318573949789577	-68.366205100221748	0	0
25.893421404004684	-69.370749108575765	0	0
30.743726495574471	-67.361661091867731	0	0
22.53530515506041	-56.690773828643138	0	0
37.828626562451085	-47.861811599928764	0	0
35.547739289214029	-49.612000534403592	0	0
38.721147669369934	-47.176955060351659	0	0
42.271608937324345	-60.838719822679771	0	0
47.825073602597186	-56.577390243088892	0	0
45.048341269960765	-58.708055032884332	0	0
42.965792020483448	-60.306053625230916	0	0
47.130890519438083	-57.110056440537747	0	0
36.440260396132878	-48.927143994826487	0	0
48.927143994826487	-36.440260396132878	0	0
47.176955060351659	-38.721147669369934	0	0
49.612000534403592	-35.547739289214029	0	0
56.577390243088892	-47.825073602597186	0	0
60.838719822679771	-42.271608937324345	0	0
58.708055032884332	-45.048341269960765	0	0
57.110056440537747	-47.130890519438083	0	0
60.306053625230916	-42.965792020483448	0	0
47.861811599928764	-37.828626562451085	0	0
56.690773828643138	-22.53530515506041	0	0
55.590558962350634	-25.191424609967672	0	0
57.121292689366292	-21.495954064009741	0	0
67.026813089083049	-31.552110677502768	0	0
69.705597111360447	-25.085037222076387	0	0
68.366205100221748	-28.318573949789577	0	0
67.361661091867731	-30.743726495574471	0	0
69.370749108575765	-25.893421404004684	0	0
56.021077823073789	-24.152073518917003	0	0
60.587957668397756	-7.0946464328978323	0	0
60.212694865765194	-9.9448435369034058	0	0
60.734799634645277	-5.9793519139391291	0	0
72.904753352069065	-13.128743394375281	0	0
73.818436697609201	-6.1891330541877956	0	0
73.361595024839133	-9.6589382242815383	0	0
73.018963770261578	-12.261292101851845	0	0
73.704226279416687	-7.0565843467112312	0	0
60.359536832012715	-8.8295490179447036	0	0
60.359536832012715	8.8295490179447036	0	0
60.734799634645277	5.9793519139391291	0	0
60.212694865765194	9.9448435369034058	0	0
73.818436697609201	6.1891330541877956	0	0
72.904753352069065	13.128743394375281	0	0
73.361595024839133	9.6589382242815383	0	0
73.704226279416687	7.0565843467112312	0	0
73.018963770261578	12.261292101851845	0	0
60.587957668397756	7.0946464328978323	0	0
56.021077823073789	24.152073518917003	0	0
57.121292689366292	21.495954064009741	0	0
55.590558962350634	25.191424609967672	0	0
69.705597111360447	25.085037222076387	0	0
67.026813089083049	31.552110677502768	0	0
68.366205100221748	28.318573949789577	0	0
69.370749108575765	25.893421404004684	0	0
67.361661091867731	30.743726495574471	0	0
56.690773828643138	22.53530515506041	0	0
47.861811599928764	37.828626562451085	0	0
49.612000534403592	35.547739289214029	0	0
47.176955060351659	38.721147669369934	0	0
60.838719822679771	42.271608937324345	0	0
56.577390243088892	47.825073602597186	0	0
58.708055032884332	45.048341269960765	0	0
60.306053625230916	42.965792020483448	0	0
57.110056440537747	47.130890519438083	0	0
48.927143994826487	36.440260396132878	0	0
36.440260396132878	48.927143994826487	0	0
38.721147669369934	47.176955060351659	0	0
35.547739289214029	49.612000534403592	0	0
47.825073602597186	56.577390243088892	0	0
42.271608937324345	60.838719822679771	0	0
45.048341269960765	58.708055032884332	0	0
47.130890519438083	57.110056440537747	0	0
42.965792020483448	60.306053625230916	0	0
37.828626562451085	47.861811599928764	0	0
22.53530515506041	56.690773828643138	0	0
25.191424609967672	55.590558962350634	0	0
21.495954064009741	57.121292689366292	0	0
31.552110677502768	67.026813089083049	0	0
25.085037222076387	69.705597111360447	0	0
28.318573949789577	68.366205100221748	0	0
30.743726495574471	67.361661091867731	0	0
25.893421404004684	69.370749108575765	0	0
24.152073518917003	56.021077823073789	0	0
7.0946464328978323	60.587957668397756	0	0
9.9448435369034058	60.212694865765194	0	0
5.9793519139391291	60.734799634645277	0	0
13.128743394375281	72.904753352069065	0	0
6.1891330541877956	73.818436697609201	0	0
9.6589382242815383	73.361595024839133	0	0
12.261292101851845	73.018963770261578	0	0
7.0565843467112312	73.704226279416687	0	0
8.8295490179447036	60.359536832012715	0	0
60	0	0	0
-60	0	0	0
84	0	0	0
-84	0	0	0
0	45.992782664376946	0	0
1.9996862027989977	45.992782664376946	0	0
-1.9996862027989977	45.992782664376946	0	0
2.9995293041984965	57.990899881170932	0	0
-2.9995293041984965	57.990899881170932	0	0
0	57.990899881170932	0	0
0.74988232604962413	57.990899881170932	0	0
-0.74988232604962413	57.990899881170932	0	0
-12.410651472149725	44.292893015339125	0	0
-10.484873514961068	44.832486557606501	0	0
-14.336429429338382	43.753299473071749	0	0
-12.759545789971014	56.656951071872136	0	0
-18.536879661536986	55.038170445070001	0	0
-15.648212725754	55.847560758471069	0	0
-14.926045991808254	56.049908336821339	0	0
-16.370379459699748	55.645213180120798	0	0
-23.900861153157138	39.30313657874779	0	0
-22.192029127994189	40.342304454972016	0	0
-25.609693178320086	38.263968702523563	0	0
-27.572620372758056	51.114880544061805	0	0
-32.699116448246897	47.99737691538914	0	0
-30.135868410502479	49.556128729725472	0	0
-29.495056401066375	49.945816683309559	0	0
-30.776680419938582	49.166440776141386	0	0
-33.618433342929656	31.397434975666791	0	0
-32.253327474422406	32.859105990576772	0	0
-34.983539211436906	29.935763960756805	0	0
-40.340800629628689	41.780576709075277	0	0
-44.436118235150445	37.395563664345318	0	0
-42.388459432389567	39.588070186710297	0	0
-41.876544731699347	40.136196817301538	0	0
-42.900374133079787	39.039943556119056	0	0
-40.842441499033654	21.162991570625586	0	0
-39.922311430745587	22.938749896670526	0	0
-41.762571567321721	19.387233244580646	0	0
-50.116796352871198	29.347409469421407	0	0
-52.877186557735406	24.020134491286584	0	0
-51.496991455303302	26.683771980353995	0	0
-51.151942679695274	27.349681352620848	0	0
-51.84204023091133	26.017862608087142	0	0
-45.035805254422904	9.3589766003405543	0	0
-44.628893228321139	11.31705508966329	0	0
-45.442717280524668	7.4008981110178196	0	0
-56.173908151206668	14.737566490935237	0	0
-57.394644229511961	8.8633310229670315	0	0
-56.784276190359314	11.800448756951134	0	0
-56.631684180571156	12.53472819044716	0	0
-56.936868200147472	11.066169323455108	0	0
-45.887916618653456	-3.139151014774872	0	0
-46.0244014453828	-1.1440242052681999	0	0
-45.751431791924112	-5.1342778242815443	0	0
-58.063404715787506	-0.96536976089091731	0	0
-57.653950235599474	-6.9507501894109334	0	0
-57.85867747569349	-3.9580599751509253	0	0
-57.90985928571699	-3.2098874215859232	0	0
-57.80749566566999	-4.706232528715927	0	0
-43.343200691377035	-15.404462151870886	0	0
-44.012959915371418	-13.519975165289276	0	0
-42.673441467382652	-17.288949138452498	0	0
-55.654761446858274	-16.596287015964787	0	0
-53.645483774875117	-22.249747975709621	0	0
-54.650122610866696	-19.423017495837204	0	0
-54.901282319864592	-18.716334875869101	0	0
-54.398962901868799	-20.129700115805306	0	0
-37.580531118511352	-26.527293235252259	0	0
-38.733891693957105	-24.893357099664808	0	0
-36.4271705430656	-28.16122937083971	0	0
-49.114188795204676	-30.996552484545585	0	0
-45.654107068867425	-35.898360891307938	0	0
-47.384147932036051	-33.44745668792676	0	0
-47.816658147828207	-32.834730637081464	0	0
-46.951637716243894	-34.060182738772056	0	0
-29.030041358781556	-35.682676229859418	0	0
-30.581462064427619	-34.420500518608044	0	0
-27.478620653135494	-36.944851941110791	0	0
-38.930226684758885	-43.097936896858727	0	0
-34.275964567820701	-46.884464030612847	0	0
-36.603095626289793	-44.991200463735787	0	0
-37.184878390907066	-44.51788457201652	0	0
-36.02131286167252	-45.464516355455054	0	0
-18.326450091696355	-42.191239854198543	0	0
-20.160851824487597	-41.394437676298701	0	0
-16.492048358905112	-42.988042032098384	0	0
-25.858865758282263	-52.002446984096231	0	0
-20.355660559908543	-54.39285351779575	0	0
-23.107263159095403	-53.197650250945991	0	0
-23.79516380889212	-52.898849434233547	0	0
-22.419362509298686	-53.496451067658434	0	0
-6.2636658584252674	-45.568358988281091	0	0
-8.2448988579157501	-45.29602569008869	0	0
-4.2824328589347846	-45.840692286473491	0	0
-10.869515146815409	-57.047257037935381	0	0
-4.9258161483439613	-57.864256932512589	0	0
-7.8976656475796849	-57.455756985223985	0	0
-8.6406280223886149	-57.353631998401831	0	0
-7.154703272770754	-57.55788197204614	0	0
6.2636658584252674	-45.568358988281091	0	0
4.2824328589347846	-45.840692286473491	0	0
8.2448988579157501	-45.29602569008869	0	0
4.9258161483439613	-57.864256932512589	0	0
10.869515146815409	-57.047257037935381	0	0
7.8976656475796849	-57.455756985223985	0	0
7.154703272770754	-57.55788197204614	0	0
8.6406280223886149	-57.353631998401831	0	0
18.326450091696355	-42.19123985419855	0	0
16.492048358905112	-42.988042032098392	0	0
20.160851824487597	-41.394437676298708	0	0
20.355660559908543	-54.392853517795757	0	0
25.858865758282263	-52.002446984096238	0	0
23.107263159095403	-53.197650250945998	0	0
22.419362509298686	-53.496451067658441	0	0
23.79516380889212	-52.898849434233554	0	0
29.030041358781556	-35.682676229859418	0	0
27.478620653135494	-36.944851941110791	0	0
30.581462064427619	-34.420500518608044	0	0
34.275964567820701	-46.884464030612847	0	0
38.930226684758885	-43.097936896858727	0	0
36.603095626289793	-44.991200463735787	0	0
36.02131286167252	-45.464516355455054	0	0
37.184878390907066	-44.51788457201652	0	0
37.580531118511367	-26.527293235252259	0	0
36.427170543065614	-28.16122937083971	0	0
38.733891693957119	-24.893357099664808	0	0
45.654107068867447	-35.898360891307938	0	0
49.114188795204697	-30.996552484545585	0	0
47.384147932036072	-33.44745668792676	0	0
46.951637716243916	-34.060182738772056	0	0
47.816658147828228	-32.834730637081464	0	0
43.343200691377035	-15.404462151870867	0	0
42.673441467382652	-17.288949138452477	0	0
44.012959915371418	-13.519975165289257	0	0
53.645483774875117	-22.249747975709596	0	0
55.654761446858274	-16.596287015964762	0	0
54.650122610866696	-19.423017495837179	0	0
54.398962901868799	-20.129700115805282	0	0
54.901282319864592	-18.716334875869077	0	0
45.887916618653456	-3.139151014774872	0	0
45.751431791924112	-5.1342778242815443	0	0
46.0244014453828	-1.1440242052681999	0	0
57.653950235599474	-6.9507501894109334	0	0
58.063404715787506	-0.96536976089091731	0	0
57.85867747569349	-3.9580599751509253	0	0
57.80749566566999	-4.706232528715927	0	0
57.90985928571699	-3.2098874215859232	0	0
45.035805254422897	9.3589766003405632	0	0
45.442717280524661	7.4008981110178285	0	0
44.628893228321132	11.317055089663299	0	0
57.394644229511954	8.8633310229670421	0	0
56.17390815120666	14.737566490935247	0	0
56.784276190359307	11.800448756951145	0	0
56.936868200147465	11.066169323455119	0	0
56.631684180571149	12.53472819044717	0	0
40.842441499033662	21.162991570625568	0	0
41.762571567321729	19.387233244580628	0	0
39.922311430745594	22.938749896670508	0	0
52.877186557735421	24.020134491286566	0	0
50.116796352871212	29.34740946942139	0	0
51.496991455303316	26.683771980353978	0	0
51.842040230911344	26.017862608087125	0	0
51.151942679695289	27.349681352620831	0	0
33.618433342929656	31.397434975666791	0	0
34.983539211436906	29.935763960756805	0	0
32.253327474422406	32.859105990576772	0	0
44.436118235150445	37.395563664345318	0	0
40.340800629628689	41.780576709075277	0	0
42.388459432389567	39.588070186710297	0	0
42.900374133079787	39.039943556119056	0	0
41.876544731699347	40.136196817301538	0	0
23.900861153157127	39.303136578747797	0	0
25.609693178320075	38.26396870252357	0	0
22.192029127994179	40.342304454972023	0	0
32.699116448246883	47.997376915389147	0	0
27.572620372758042	51.114880544061812	0	0
30.135868410502464	49.556128729725479	0	0
30.776680419938568	49.166440776141393	0	0
29.495056401066361	49.945816683309566	0	0
12.410651472149743	44.292893015339125	0	0
14.3364294293384	43.753299473071742	0	0
10.484873514961086	44.832486557606508	0	0
18.536879661537011	55.038170445070001	0	0
12.759545789971037	56.656951071872136	0	0
15.648212725754023	55.847560758471069	0	0
16.37037945969977	55.645213180120798	0	0
14.926045991808277	56.049908336821339	0	0
59	0	0	0
-59	0	0	0
15.333333333333332	0	0	0
-15.333333333333332	0	0	0
[NumSegments] = 400
7	5	-1	0	0	0
5	6	-1	0	0	0
3	1	-1	0	0	0
4	2	-1	0	0	0
8	0	-1	0	0	0
7	4	-1	0	0	0
3	6	-1	0	0	0
2	0	-1	0	0	0
8	1	-1	0	0	0
16	14	-1	0	0	0
14	15	-1	0	0	0
12	10	-1	0	0	0
13	11	-1	0	0	0
17	9	-1	0	0	0
16	13	-1	0	0	0
12	15	-1	0	0	0
11	9	-1	0	0	0
17	10	-1	0	0	0
25	23	-1	0	0	0
23	24	-1	0	0	0
21	19	-1	0	0	0
22	20	-1	0	0	0
26	18	-1	0	0	0
25	22	-1	0	0	0
21	24	-1	0	0	0
20	18	-1	0	0	0
26	19	-1	0	0	0
34	32	-1	0	0	0
32	33	-1	0	0	0
30	28	-1	0	0	0
31	29	-1	0	0	0
35	27	-1	0	0	0
34	31	-1	0	0	0
30	33	-1	0	0	0
29	27	-1	0	0	0
35	28	-1	0	0	0
43	41	-1	0	0	0
41	42	-1	0	0	0
39	37	-1	0	0	0
40	38	-1	0	0	0
44	36	-1	0	0	0
43	40	-1	0	0	0
39	42	-1	0	0	0
38	36	-1	0	0	0
44	37	-1	0	0	0
52	50	-1	0	0	0
50	51	-1	0	0	0
48	46	-1	0	0	0
49	47	-1	0	0	0
53	45	-1	0	0	0
52	49	-1	0	0	0
48	51	-1	0	0	0
47	45	-1	0	0	0
53	46	-1	0	0	0
61	59	-1	0	0	0
59	60	-1	0	0	0
57	55	-1	0	0	0
58	56	-1	0	0	0
62	54	-1	0	0	0
61	58	-1	0	0	0
57	60	-1	0	0	0
56	54	-1	0	0	0
62	55	-1	0	0	0
70	68	-1	0	0	0
68	69	-1	0	0	0
66	64	-1	0	0	0
67	65	-1	0	0	0
71	63	-1	0	0	0
70	67	-1	0	0	0
66	69	-1	0	0	0
65	63	-1	0	0	0
71	64	-1	0	0	0
79	77	-1	0	0	0
77	78	-1	0	0	0
75	73	-1	0	0	0
76	74	-1	0	0	0
80	72	-1	0	0	0
79	76	-1	0	0	0
75	78	-1	0	0	0
74	72	-1	0	0	0
80	73	-1	0	0	0
88	86	-1	0	0	0
86	87	-1	0	0	0
84	82	-1	0	0	0
85	83	-1	0	0	0
89	81	-1	0	0	0
88	85	-1	0	0	0
84	87	-1	0	0	0
83	81	-1	0	0	0
89	82	-1	0	0	0
97	95	-1	0	0	0
95	96	-1	0	0	0
93	91	-1	0	0	0
94	92	-1	0	0	0
98	90	-1	0	0	0
97	94	-1	0	0	0
93	96	-1	0	0	0
92	90	-1	0	0	0
98	91	-1	0	0	0
106	104	-1	0	0	0
104	105	-1	0	0	0
102	100	-1	0	0	0
103	101	-1	0	0	0
107	99	-1	0	0	0
106	103	-1	0	0	0
102	105	-1	0	0	0
101	99	-1	0	0	0
107	100	-1	0	0	0
115	113	-1	0	0	0
113	114	-1	0	0	0
111	109	-1	0	0	0
112	110	-1	0	0	0
116	108	-1	0	0	0
115	112	-1	0	0	0
111	114	-1	0	0	0
110	108	-1	0	0	0
116	109	-1	0	0	0
124	122	-1	0	0	0
122	123	-1	0	0	0
120	118	-1	0	0	0
121	119	-1	0	0	0
125	117	-1	0	0	0
124	121	-1	0	0	0
120	123	-1	0	0	0
119	117	-1	0	0	0
125	118	-1	0	0	0
133	131	-1	0	0	0
131	132	-1	0	0	0
129	127	-1	0	0	0
130	128	-1	0	0	0
134	126	-1	0	0	0
133	130	-1	0	0	0
129	132	-1	0	0	0
128	126	-1	0	0	0
134	127	-1	0	0	0
142	140	-1	0	0	0
140	141	-1	0	0	0
138	136	-1	0	0	0
139	137	-1	0	0	0
143	135	-1	0	0	0
142	139	-1	0	0	0
138	141	-1	0	0	0
137	135	-1	0	0	0
143	136	-1	0	0	0
151	149	-1	0	0	0
149	150	-1	0	0	0
147	145	-1	0	0	0
148	146	-1	0	0	0
152	144	-1	0	0	0
151	148	-1	0	0	0
147	150	-1	0	0	0
146	144	-1	0	0	0
152	145	-1	0	0	0
160	158	-1	0	0	0
158	159	-1	0	0	0
156	154	-1	0	0	0
157	155	-1	0	0	0
161	153	-1	0	0	0
160	157	-1	0	0	0
156	159	-1	0	0	0
155	153	-1	0	0	0
161	154	-1	0	0	0
169	167	-1	0	0	0
167	168	-1	0	0	0
165	163	-1	0	0	0
166	164	-1	0	0	0
170	162	-1	0	0	0
169	166	-1	0	0	0
165	168	-1	0	0	0
164	162	-1	0	0	0
170	163	-1	0	0	0
178	176	-1	0	0	0
176	177	-1	0	0	0
174	172	-1	0	0	0
175	173	-1	0	0	0
179	171	-1	0	0	0
178	175	-1	0	0	0
174	177	-1	0	0	0
173	171	-1	0	0	0
179	172	-1	0	0	0
187	185	-1	0	0	0
185	186	-1	0	0	0
183	181	-1	0	0	0
184	182	-1	0	0	0
188	180	-1	0	0	0
187	184	-1	0	0	0
183	186	-1	0	0	0
182	180	-1	0	0	0
188	181	-1	0	0	0
196	194	-1	0	0	0
194	195	-1	0	0	0
192	190	-1	0	0	0
193	191	-1	0	0	0
197	189	-1	0	0	0
196	193	-1	0	0	0
192	195	-1	0	0	0
191	189	-1	0	0	0
197	190	-1	0	0	0
205	203	-1	0	0	0
203	204	-1	0	0	0
201	199	-1	0	0	0
202	200	-1	0	0	0
206	198	-1	0	0	0
205	202	-1	0	0	0
201	204	-1	0	0	0
200	198	-1	0	0	0
206	199	-1	0	0	0
214	212	-1	0	0	0
212	213	-1	0	0	0
210	208	-1	0	0	0
211	209	-1	0	0	0
215	207	-1	0	0	0
214	211	-1	0	0	0
210	213	-1	0	0	0
209	207	-1	0	0	0
215	208	-1	0	0	0
227	225	-1	0	0	0
225	226	-1	0	0	0
223	221	-1	0	0	0
224	222	-1	0	0	0
227	224	-1	0	0	0
223	226	-1	0	0	0
222	220	-1	0	0	0
220	221	-1	0	0	0
235	233	-1	0	0	0
233	234	-1	0	0	0
231	229	-1	0	0	0
232	230	-1	0	0	0
235	232	-1	0	0	0
231	234	-1	0	0	0
230	228	-1	0	0	0
228	229	-1	0	0	0
243	241	-1	0	0	0
241	242	-1	0	0	0
239	237	-1	0	0	0
240	238	-1	0	0	0
243	240	-1	0	0	0
239	242	-1	0	0	0
238	236	-1	0	0	0
236	237	-1	0	0	0
251	249	-1	0	0	0
249	250	-1	0	0	0
247	245	-1	0	0	0
248	246	-1	0	0	0
251	248	-1	0	0	0
247	250	-1	0	0	0
246	244	-1	0	0	0
244	245	-1	0	0	0
259	257	-1	0	0	0
257	258	-1	0	0	0
255	253	-1	0	0	0
256	254	-1	0	0	0
259	256	-1	0	0	0
255	258	-1	0	0	0
254	252	-1	0	0	0
252	253	-1	0	0	0
267	265	-1	0	0	0
265	266	-1	0	0	0
263	261	-1	0	0	0
264	262	-1	0	0	0
267	264	-1	0	0	0
263	266	-1	0	0	0
262	260	-1	0	0	0
260	261	-1	0	0	0
275	273	-1	0	0	0
273	274	-1	0	0	0
271	269	-1	0	0	0
272	270	-1	0	0	0
275	272	-1	0	0	0
271	274	-1	0	0	0
270	268	-1	0	0	0
268	269	-1	0	0	0
283	281	-1	0	0	0
281	282	-1	0	0	0
279	277	-1	0	0	0
280	278	-1	0	0	0
283	280	-1	0	0	0
279	282	-1	0	0	0
278	276	-1	0	0	0
276	277	-1	0	0	0
291	289	-1	0	0	0
289	290	-1	0	0	0
287	285	-1	0	0	0
288	286	-1	0	0	0
291	288	-1	0	0	0
287	290	-1	0	0	0
286	284	-1	0	0	0
284	285	-1	0	0	0
299	297	-1	0	0	0
297	298	-1	0	0	0
295	293	-1	0	0	0
296	294	-1	0	0	0
299	296	-1	0	0	0
295	298	-1	0	0	0
294	292	-1	0	0	0
292	293	-1	0	0	0
307	305	-1	0	0	0
305	306	-1	0	0	0
303	301	-1	0	0	0
304	302	-1	0	0	0
307	304	-1	0	0	0
303	306	-1	0	0	0
302	300	-1	0	0	0
300	301	-1	0	0	0
315	313	-1	0	0	0
313	314	-1	0	0	0
311	309	-1	0	0	0
312	310	-1	0	0	0
315	312	-1	0	0	0
311	314	-1	0	0	0
310	308	-1	0	0	0
308	309	-1	0	0	0
323	321	-1	0	0	0
321	322	-1	0	0	0
319	317	-1	0	0	0
320	318	-1	0	0	0
323	320	-1	0	0	0
319	322	-1	0	0	0
318	316	-1	0	0	0
316	317	-1	0	0	0
331	329	-1	0	0	0
329	330	-1	0	0	0
327	325	-1	0	0	0
328	326	-1	0	0	0
331	328	-1	0	0	0
327	330	-1	0	0	0
326	324	-1	0	0	0
324	325	-1	0	0	0
339	337	-1	0	0	0
337	338	-1	0	0	0
335	333	-1	0	0	0
336	334	-1	0	0	0
339	336	-1	0	0	0
335	338	-1	0	0	0
334	332	-1	0	0	0
332	333	-1	0	0	0
347	345	-1	0	0	0
345	346	-1	0	0	0
343	341	-1	0	0	0
344	342	-1	0	0	0
347	344	-1	0	0	0
343	346	-1	0	0	0
342	340	-1	0	0	0
340	341	-1	0	0	0
355	353	-1	0	0	0
353	354	-1	0	0	0
351	349	-1	0	0	0
352	350	-1	0	0	0
355	352	-1	0	0	0
351	354	-1	0	0	0
350	348	-1	0	0	0
348	349	-1	0	0	0
363	361	-1	0	0	0
361	362	-1	0	0	0
359	357	-1	0	0	0
360	358	-1	0	0	0
363	360	-1	0	0	0
359	362	-1	0	0	0
358	356	-1	0	0	0
356	357	-1	0	0	0
371	369	-1	0	0	0
369	370	-1	0	0	0
367	365	-1	0	0	0
368	366	-1	0	0	0
371	368	-1	0	0	0
367	370	-1	0	0	0
366	364	-1	0	0	0
364	365	-1	0	0	0
379	377	-1	0	0	0
377	378	-1	0	0	0
375	373	-1	0	0	0
376	374	-1	0	0	0
379	376	-1	0	0	0
375	378	-1	0	0	0
374	372	-1	0	0	0
372	373	-1	0	0	0
387	385	-1	0	0	0
385	386	-1	0	0	0
383	381	-1	0	0	0
384	382	-1	0	0	0
387	384	-1	0	0	0
383	386	-1	0	0	0
382	380	-1	0	0	0
380	381	-1	0	0	0
395	393	-1	0	0	0
393	394	-1	0	0	0
391	389	-1	0	0	0
392	390	-1	0	0	0
395	392	-1	0	0	0
391	394	-1	0	0	0
390	388	-1	0	0	0
388	389	-1	0	0	0
403	401	-1	0	0	0
401	402	-1	0	0	0
399	397	-1	0	0	0
400	398	-1	0	0	0
403	400	-1	0	0	0
399	402	-1	0	0	0
398	396	-1	0	0	0
396	397	-1	0	0	0
[NumArcSegments] = 8
216	217	180	1	0	0	0	1
217	216	180	1	0	0	0	1
218	219	180	1	1	0	0	1
219	218	180	1	1	0	0	1
404	405	180	1	0	0	0	1
405	404	180	1	0	0	0	1
406	407	180	1	0	0	0	1
407	406	180	1	0	0	0	1
[NumHoles] = 0
[NumBlockLabels] = 51
83.200000000000003	0	5	-1	0	0	0	1	0
-8.810517974851404	66.917671137522191	2	1	6	120	0	2	0
-25.831131643389142	62.361065463040106	2	1	6	120	0	2	0
-41.091392374626373	53.551266415130975	2	1	6	120	0	2	0
-53.551266415130975	41.091392374626373	2	1	6	120	0	2	0
-62.361065463040106	25.831131643389142	2	1	2	-120	0	-2	0
-66.917671137522191	8.810517974851404	2	1	2	-120	0	-2	0
-66.917671137522191	-8.810517974851404	2	1	2	-120	0	-2	0
-62.361065463040106	-25.831131643389142	2	1	2	-120	0	-2	0
-53.551266415130975	-41.091392374626373	2	1	4	0	0	2	0
-41.091392374626373	-53.551266415130975	2	1	4	0	0	2	0
-25.831131643389142	-62.361065463040106	2	1	4	0	0	2	0
-8.810517974851404	-66.917671137522191	2	1	4	0	0	2	0
8.810517974851404	-66.917671137522191	2	1	3	120	0	2	0
25.831131643389142	-62.361065463040106	2	1	3	120	0	2	0
41.091392374626373	-53.551266415130975	2	1	3	120	0	2	0
53.551266415130975	-41.091392374626373	2	1	3	120	0	2	0
62.361065463040106	-25.831131643389142	2	1	5	-120	0	-2	0
66.917671137522191	-8.810517974851404	2	1	5	-120	0	-2	0
66.917671137522191	8.810517974851404	2	1	5	-120	0	-2	0
62.361065463040106	25.831131643389142	2	1	5	-120	0	-2	0
53.551266415130975	41.091392374626373	2	1	1	0	0	2	0
41.091392374626373	53.551266415130975	2	1	1	0	0	2	0
25.831131643389142	62.361065463040106	2	1	1	0	0	2	0
8.810517974851404	66.917671137522191	2	1	1	0	0	2	0
0	50.792029551094537	3	-1	0	0	0	1	0
-13.705675973591434	48.9147601125919	3	-1	0	0	0	1	0
-26.394864056095273	43.40433343913886	3	-1	0	0	0	1	0
-37.126443778713615	34.673689060084193	3	-1	0	0	0	1	0